
  Mrv2114 03112311372D          

 25 28  0  0  0  0            999 V2000
    6.2102    3.5854    0.0000 F   0  0  0  0  0  0  0  0  0  0  0  0
    5.4957    3.1729    0.0000 C   0  0  0  0  0  0  0  0  0  0  0  0
    5.4957    2.3479    0.0000 C   0  0  0  0  0  0  0  0  0  0  0  0
    4.7812    1.9354    0.0000 C   0  0  0  0  0  0  0  0  0  0  0  0
    4.7812    1.1104    0.0000 F   0  0  0  0  0  0  0  0  0  0  0  0
    4.0668    2.3479    0.0000 C   0  0  0  0  0  0  0  0  0  0  0  0
    3.3523    1.9354    0.0000 C   0  0  0  0  0  0  0  0  0  0  0  0
    3.3523    1.1104    0.0000 C   0  0  0  0  0  0  0  0  0  0  0  0
    2.6378    0.6979    0.0000 C   0  0  0  0  0  0  0  0  0  0  0  0
    2.6378   -0.1271    0.0000 N   0  0  0  0  0  0  0  0  0  0  0  0
    1.9233   -0.5396    0.0000 C   0  0  0  0  0  0  0  0  0  0  0  0
    1.9233   -1.3646    0.0000 C   0  0  0  0  0  0  0  0  0  0  0  0
    1.2089   -1.7771    0.0000 C   0  0  0  0  0  0  0  0  0  0  0  0
    0.4944   -1.3646    0.0000 N   0  0  0  0  0  0  0  0  0  0  0  0
    0.4944   -0.5396    0.0000 C   0  0  0  0  0  0  0  0  0  0  0  0
    1.2089   -0.1271    0.0000 C   0  0  0  0  0  0  0  0  0  0  0  0
    1.9233    1.1104    0.0000 C   0  0  0  0  0  0  0  0  0  0  0  0
    1.1387    0.8555    0.0000 C   0  0  0  0  0  0  0  0  0  0  0  0
    0.6538    1.5229    0.0000 C   0  0  0  0  0  0  0  0  0  0  0  0
    1.1387    2.1904    0.0000 N   0  0  0  0  0  0  0  0  0  0  0  0
    1.9233    1.9354    0.0000 C   0  0  0  0  0  0  0  0  0  0  0  0
    2.6378    2.3479    0.0000 N   0  0  0  0  0  0  0  0  0  0  0  0
    4.0668    3.1729    0.0000 C   0  0  0  0  0  0  0  0  0  0  0  0
    4.7812    3.5854    0.0000 C   0  0  0  0  0  0  0  0  0  0  0  0
    4.7812    4.4104    0.0000 Cl  0  0  0  0  0  0  0  0  0  0  0  0
  1  2  1  0  0  0  0
  2  3  4  0  0  0  0
  3  4  4  0  0  0  0
  4  5  1  0  0  0  0
  4  6  4  0  0  0  0
  6  7  1  0  0  0  0
  7  8  4  0  0  0  0
  8  9  4  0  0  0  0
  9 10  1  0  0  0  0
 10 11  1  0  0  0  0
 11 12  4  0  0  0  0
 12 13  4  0  0  0  0
 13 14  4  0  0  0  0
 14 15  4  0  0  0  0
 15 16  4  0  0  0  0
 11 16  4  0  0  0  0
  9 17  4  0  0  0  0
 17 18  4  0  0  0  0
 18 19  4  0  0  0  0
 19 20  4  0  0  0  0
 20 21  4  0  0  0  0
 17 21  4  0  0  0  0
 21 22  4  0  0  0  0
  7 22  4  0  0  0  0
  6 23  4  0  0  0  0
 23 24  4  0  0  0  0
  2 24  4  0  0  0  0
 24 25  1  0  0  0  0
M  STY  1   1 DAT
M  SAL   1  1  20
M  SDT   1 MRV_IMPLICIT_H                                        
M  SDD   1     0.0000    0.0000    DR    ALL  0       0  
M  SED   1 IMPL_H1
M  END
>  <CdId>
1

>  <Mol Weight>
356.76

>  <Formula>
C18H11ClF2N4

>  <Molecule ChEMBL ID>
CHEMBL4437930

>  <Molecule Max Phase>
None

>  <Molecular Weight>
356.76

>  <#RO5 Violations>
1

>  <AlogP>
5.3

>  <Compound Key>
6

>  <Standard Type>
IC50

>  <Standard Relation>
'='

>  <Standard Value>
100.0

>  <Standard Units>
nM

$$$$

  Mrv2114 03112311372D          

 29 31  0  0  0  0            999 V2000
    2.1434    0.4125    0.0000 N   0  0  0  0  0  0  0  0  0  0  0  0
    2.1434   -0.4125    0.0000 C   0  0  0  0  0  0  0  0  0  0  0  0
    2.1434   -1.2375    0.0000 C   0  0  0  0  0  0  0  0  0  0  0  0
    2.8579   -1.6500    0.0000 C   0  0  0  0  0  0  0  0  0  0  0  0
    2.8579   -2.4750    0.0000 C   0  0  0  0  0  0  0  0  0  0  0  0
    3.5724   -2.8875    0.0000 S   0  0  0  0  0  0  0  0  0  0  0  0
    3.9849   -2.1730    0.0000 O   0  0  0  0  0  0  0  0  0  0  0  0
    3.1599   -3.6020    0.0000 O   0  0  0  0  0  0  0  0  0  0  0  0
    4.2868   -3.3000    0.0000 N   0  0  0  0  0  0  0  0  0  0  0  0
    4.2868   -4.1250    0.0000 C   0  0  0  0  0  0  0  0  0  0  0  0
    5.0013   -4.5375    0.0000 C   0  0  0  0  0  0  0  0  0  0  0  0
    5.0013   -5.3625    0.0000 C   0  0  0  0  0  0  0  0  0  0  0  0
    4.2868   -5.7750    0.0000 C   0  0  0  0  0  0  0  0  0  0  0  0
    4.2868   -6.6000    0.0000 F   0  0  0  0  0  0  0  0  0  0  0  0
    3.5724   -5.3625    0.0000 C   0  0  0  0  0  0  0  0  0  0  0  0
    3.5724   -4.5375    0.0000 N   0  0  0  0  0  0  0  0  0  0  0  0
    2.1434   -2.8875    0.0000 C   0  0  0  0  0  0  0  0  0  0  0  0
    1.4289   -2.4750    0.0000 C   0  0  0  0  0  0  0  0  0  0  0  0
    1.4289   -1.6500    0.0000 C   0  0  0  0  0  0  0  0  0  0  0  0
    0.7145   -1.2375    0.0000 O   0  0  0  0  0  0  0  0  0  0  0  0
    0.7145   -0.4125    0.0000 C   0  0  0  0  0  0  0  0  0  0  0  0
    0.0000    0.0000    0.0000 C   0  0  0  0  0  0  0  0  0  0  0  0
    0.0000    0.8250    0.0000 C   0  0  0  0  0  0  0  0  0  0  0  0
    0.7145    1.2375    0.0000 C   0  0  0  0  0  0  0  0  0  0  0  0
    0.7145    2.0625    0.0000 C   0  0  0  0  0  0  0  0  0  0  0  0
    0.0000    2.4750    0.0000 O   0  0  0  0  0  0  0  0  0  0  0  0
    1.4289    0.8250    0.0000 C   0  0  0  0  0  0  0  0  0  0  0  0
    2.1434    1.2375    0.0000 Cl  0  0  0  0  0  0  0  0  0  0  0  0
    1.4289    0.0000    0.0000 C   0  0  0  0  0  0  0  0  0  0  0  0
  1  2  3  0  0  0  0
  2  3  1  0  0  0  0
  3  4  4  0  0  0  0
  4  5  4  0  0  0  0
  5  6  1  0  0  0  0
  6  7  2  0  0  0  0
  6  8  2  0  0  0  0
  6  9  1  0  0  0  0
  9 10  1  0  0  0  0
 10 11  4  0  0  0  0
 11 12  4  0  0  0  0
 12 13  4  0  0  0  0
 13 14  1  0  0  0  0
 13 15  4  0  0  0  0
 15 16  4  0  0  0  0
 10 16  4  0  0  0  0
  5 17  4  0  0  0  0
 17 18  4  0  0  0  0
 18 19  4  0  0  0  0
  3 19  4  0  0  0  0
 19 20  1  0  0  0  0
 20 21  1  0  0  0  0
 21 22  4  0  0  0  0
 22 23  4  0  0  0  0
 23 24  4  0  0  0  0
 24 25  1  0  0  0  0
 25 26  1  0  0  0  0
 24 27  4  0  0  0  0
 27 28  1  0  0  0  0
 27 29  4  0  0  0  0
 21 29  4  0  0  0  0
M  END
>  <CdId>
2

>  <Mol Weight>
433.84

>  <Formula>
C19H13ClFN3O4S

>  <Molecule ChEMBL ID>
CHEMBL3688197

>  <Molecule Max Phase>
None

>  <Molecular Weight>
433.85

>  <#RO5 Violations>
0

>  <AlogP>
3.83

>  <Compound Key>
10i

>  <Standard Type>
IC50

>  <Standard Relation>
'='

>  <Standard Value>
9900.0

>  <Standard Units>
nM

$$$$

  Mrv2114 03112311372D          

 39 44  0  0  0  0            999 V2000
    1.1809   -3.5477    0.0000 C   0  0  0  0  0  0  0  0  0  0  0  0
    1.4358   -2.7631    0.0000 N   0  0  0  0  0  0  0  0  0  0  0  0
    0.8838   -2.1500    0.0000 C   0  0  0  0  0  0  0  0  0  0  0  0
    0.0768   -2.3215    0.0000 O   0  0  0  0  0  0  0  0  0  0  0  0
    1.1387   -1.3654    0.0000 C   0  0  0  0  0  0  0  0  0  0  0  0
    0.6538   -0.6979    0.0000 C   0  0  0  0  0  0  0  0  0  0  0  0
   -0.1712   -0.6979    0.0000 C   0  0  0  0  0  0  0  0  0  0  0  0
   -0.5837   -1.4124    0.0000 C   0  0  0  0  0  0  0  0  0  0  0  0
   -1.4087   -1.4124    0.0000 C   0  0  0  0  0  0  0  0  0  0  0  0
   -1.8212   -0.6979    0.0000 C   0  0  0  0  0  0  0  0  0  0  0  0
   -2.6462   -0.6979    0.0000 F   0  0  0  0  0  0  0  0  0  0  0  0
   -1.4087    0.0165    0.0000 C   0  0  0  0  0  0  0  0  0  0  0  0
   -0.5837    0.0165    0.0000 C   0  0  0  0  0  0  0  0  0  0  0  0
    1.1387   -0.0305    0.0000 O   0  0  0  0  0  0  0  0  0  0  0  0
    1.9233   -0.2854    0.0000 C   0  0  0  0  0  0  0  0  0  0  0  0
    2.6378    0.1271    0.0000 C   0  0  0  0  0  0  0  0  0  0  0  0
    3.3523   -0.2854    0.0000 C   0  0  0  0  0  0  0  0  0  0  0  0
    3.3523   -1.1104    0.0000 C   0  0  0  0  0  0  0  0  0  0  0  0
    4.0668   -1.5229    0.0000 C   0  0  0  0  0  0  0  0  0  0  0  0
    4.7812   -1.1104    0.0000 C   0  0  0  0  0  0  0  0  0  0  0  0
    5.4957   -1.5229    0.0000 C   0  0  0  0  0  0  0  0  0  0  0  0
    6.2102   -1.1104    0.0000 C   0  0  0  0  0  0  0  0  0  0  0  0
    6.9246   -1.5229    0.0000 O   0  0  0  0  0  0  0  0  0  0  0  0
    6.2102   -0.2854    0.0000 N   0  0  0  0  0  0  0  0  0  0  0  0
    6.9246    0.1271    0.0000 C   0  0  0  0  0  0  0  0  0  0  0  0
    6.6425    0.9023    0.0000 C   0  0  0  0  0  0  0  0  0  0  0  0
    7.1728    1.5343    0.0000 C   0  0  0  0  0  0  0  0  0  0  0  0
    6.8906    2.3095    0.0000 C   0  0  0  0  0  0  0  0  0  0  0  0
    6.0781    2.4528    0.0000 C   0  0  0  0  0  0  0  0  0  0  0  0
    5.5478    1.8208    0.0000 N   0  0  0  0  0  0  0  0  0  0  0  0
    5.8300    1.0456    0.0000 C   0  0  0  0  0  0  0  0  0  0  0  0
    7.4549   -0.5049    0.0000 C   0  0  0  0  0  0  0  0  0  0  0  0
    7.7371    0.2703    0.0000 C   0  0  0  0  0  0  0  0  0  0  0  0
    5.4957   -2.3479    0.0000 C   0  0  0  0  0  0  0  0  0  0  0  0
    4.7812   -2.7604    0.0000 C   0  0  0  0  0  0  0  0  0  0  0  0
    4.0668   -2.3479    0.0000 C   0  0  0  0  0  0  0  0  0  0  0  0
    3.3523   -2.7604    0.0000 C   0  0  0  0  0  0  0  0  0  0  0  0
    2.6378   -1.5229    0.0000 C   0  0  0  0  0  0  0  0  0  0  0  0
    1.9233   -1.1104    0.0000 C   0  0  0  0  0  0  0  0  0  0  0  0
  1  2  1  0  0  0  0
  2  3  1  0  0  0  0
  3  4  2  0  0  0  0
  3  5  1  0  0  0  0
  5  6  4  0  0  0  0
  6  7  1  0  0  0  0
  7  8  4  0  0  0  0
  8  9  4  0  0  0  0
  9 10  4  0  0  0  0
 10 11  1  0  0  0  0
 10 12  4  0  0  0  0
 12 13  4  0  0  0  0
  7 13  4  0  0  0  0
  6 14  4  0  0  0  0
 14 15  4  0  0  0  0
 15 16  4  0  0  0  0
 16 17  4  0  0  0  0
 17 18  4  0  0  0  0
 18 19  1  0  0  0  0
 19 20  4  0  0  0  0
 20 21  4  0  0  0  0
 21 22  1  0  0  0  0
 22 23  2  0  0  0  0
 22 24  1  0  0  0  0
 24 25  1  0  0  0  0
 25 26  1  0  0  0  0
 26 27  4  0  0  0  0
 27 28  4  0  0  0  0
 28 29  4  0  0  0  0
 29 30  4  0  0  0  0
 30 31  4  0  0  0  0
 26 31  4  0  0  0  0
 25 32  1  0  0  0  0
 32 33  1  0  0  0  0
 25 33  1  0  0  0  0
 21 34  4  0  0  0  0
 34 35  4  0  0  0  0
 35 36  4  0  0  0  0
 19 36  4  0  0  0  0
 36 37  1  0  0  0  0
 18 38  4  0  0  0  0
 38 39  4  0  0  0  0
  5 39  4  0  0  0  0
 15 39  4  0  0  0  0
M  END
>  <CdId>
3

>  <Mol Weight>
519.576

>  <Formula>
C32H26FN3O3

>  <Molecule ChEMBL ID>
CHEMBL4096241

>  <Molecule Max Phase>
None

>  <Molecular Weight>
519.58

>  <#RO5 Violations>
2

>  <AlogP>
6.39

>  <Compound Key>
30

>  <Standard Type>
IC50

>  <Standard Relation>
'='

>  <Standard Value>
350.0

>  <Standard Units>
nM

$$$$

  Mrv2114 03112311372D          

 30 31  0  0  0  0            999 V2000
    5.8138   -7.6942    0.0000 C   0  0  0  0  0  0  0  0  0  0  0  0
    5.0993   -7.2817    0.0000 C   0  0  0  0  0  0  0  0  0  0  0  0
    5.5118   -6.5673    0.0000 C   0  0  0  0  0  0  0  0  0  0  0  0
    4.6868   -7.9962    0.0000 C   0  0  0  0  0  0  0  0  0  0  0  0
    4.3848   -6.8692    0.0000 N   0  0  0  0  0  0  0  0  0  0  0  0
    4.3848   -6.0442    0.0000 C   0  0  0  0  0  0  0  0  0  0  0  0
    5.0993   -5.6317    0.0000 O   0  0  0  0  0  0  0  0  0  0  0  0
    3.6704   -5.6317    0.0000 N   0  0  0  0  0  0  0  0  0  0  0  0
    3.6704   -4.8067    0.0000 C   0  0  0  0  0  0  0  0  0  0  0  0
    2.9559   -4.3942    0.0000 C   0  0  0  0  0  0  0  0  0  0  0  0
    2.9559   -3.5692    0.0000 N   0  0  0  0  0  0  0  0  0  0  0  0
    2.2414   -3.1567    0.0000 C   0  0  0  0  0  0  0  0  0  0  0  0
    2.2414   -2.3317    0.0000 C   0  0  0  0  0  0  0  0  0  0  0  0
    2.9559   -1.9192    0.0000 C   0  0  0  0  0  0  0  0  0  0  0  0
    2.4256   -1.2873    0.0000 C   0  0  0  0  0  0  0  0  0  0  0  0
    2.7077   -0.5120    0.0000 O   0  0  0  0  0  0  0  0  0  0  0  0
    3.4862   -1.2873    0.0000 C   0  0  0  0  0  0  0  0  0  0  0  0
    4.2986   -1.4305    0.0000 N   0  0  0  0  0  0  0  0  0  0  0  0
    4.8289   -0.7985    0.0000 C   0  0  0  0  0  0  0  0  0  0  0  0
    4.5468   -0.0233    0.0000 O   0  0  0  0  0  0  0  0  0  0  0  0
    5.6414   -0.9418    0.0000 C   0  0  0  0  0  0  0  0  0  0  0  0
    6.1717   -0.3098    0.0000 C   0  0  0  0  0  0  0  0  0  0  0  0
    6.9842   -0.4531    0.0000 C   0  0  0  0  0  0  0  0  0  0  0  0
    7.5145    0.1789    0.0000 Cl  0  0  0  0  0  0  0  0  0  0  0  0
    7.2663   -1.2283    0.0000 C   0  0  0  0  0  0  0  0  0  0  0  0
    6.7360   -1.8603    0.0000 C   0  0  0  0  0  0  0  0  0  0  0  0
    7.0182   -2.6355    0.0000 Cl  0  0  0  0  0  0  0  0  0  0  0  0
    5.9236   -1.7170    0.0000 C   0  0  0  0  0  0  0  0  0  0  0  0
    3.6704   -2.3317    0.0000 C   0  0  0  0  0  0  0  0  0  0  0  0
    3.6704   -3.1567    0.0000 C   0  0  0  0  0  0  0  0  0  0  0  0
  1  2  1  0  0  0  0
  2  3  1  0  0  0  0
  2  4  1  0  0  0  0
  2  5  1  0  0  0  0
  5  6  1  0  0  0  0
  6  7  2  0  0  0  0
  6  8  1  0  0  0  0
  8  9  1  0  0  0  0
  9 10  1  0  0  0  0
 10 11  1  0  0  0  0
 11 12  1  0  0  0  0
 12 13  1  0  0  0  0
 13 14  1  0  0  0  0
 14 15  1  0  0  0  0
 15 16  1  0  0  0  0
 14 17  1  0  0  0  0
 17 18  1  0  0  0  0
 18 19  1  0  0  0  0
 19 20  2  0  0  0  0
 19 21  1  0  0  0  0
 21 22  4  0  0  0  0
 22 23  4  0  0  0  0
 23 24  1  0  0  0  0
 23 25  4  0  0  0  0
 25 26  4  0  0  0  0
 26 27  1  0  0  0  0
 26 28  4  0  0  0  0
 21 28  4  0  0  0  0
 14 29  1  0  0  0  0
 29 30  1  0  0  0  0
 11 30  1  0  0  0  0
M  END
>  <CdId>
4

>  <Mol Weight>
459.41

>  <Formula>
C21H32Cl2N4O3

>  <Molecule ChEMBL ID>
CHEMBL2337981

>  <Molecule Max Phase>
None

>  <Molecular Weight>
459.42

>  <#RO5 Violations>
0

>  <AlogP>
2.9

>  <Compound Key>
21

>  <Standard Type>
IC50

>  <Standard Relation>
'>'

>  <Standard Value>
10000.0

>  <Standard Units>
nM

$$$$

  Mrv2114 03112311372D          

 24 28  0  0  1  0            999 V2000
    5.6231   -2.0886    0.0000 C   0  0  0  0  0  0  0  0  0  0  0  0
    5.2285   -1.3641    0.0000 C   0  0  0  0  0  0  0  0  0  0  0  0
    5.7955   -0.7649    0.0000 N   0  0  0  0  0  0  0  0  0  0  0  0
    5.6441    0.0461    0.0000 C   0  0  0  0  0  0  0  0  0  0  0  0
    4.8660    0.3204    0.0000 C   0  0  0  0  0  0  0  0  0  0  0  0
    4.7145    1.1314    0.0000 C   0  0  0  0  0  0  0  0  0  0  0  0
    3.9365    1.4057    0.0000 N   0  0  0  0  0  0  0  0  0  0  0  0
    3.3099    0.8690    0.0000 C   0  0  0  0  0  0  0  0  0  0  0  0
    3.3757    0.0466    0.0000 N   0  0  0  0  0  0  0  0  0  0  0  0
    2.6140   -0.2701    0.0000 C   0  0  0  0  0  0  0  0  0  0  0  0
    2.0773    0.3565    0.0000 C   0  0  2  0  0  0  0  0  0  0  0  0
    1.7232   -0.3887    0.0000 C   0  0  0  0  0  0  0  0  0  0  0  0
    0.9008   -0.4545    0.0000 N   0  0  0  0  0  0  0  0  0  0  0  0
    0.4326    0.2247    0.0000 C   0  0  0  0  0  0  0  0  0  0  0  0
    0.7867    0.9698    0.0000 C   0  0  0  0  0  0  0  0  0  0  0  0
    1.6091    1.0357    0.0000 C   0  0  0  0  0  0  0  0  0  0  0  0
    1.2488    0.5980    0.0000 C   0  0  0  0  0  0  0  0  0  0  0  0
    1.0127    0.1012    0.0000 C   0  0  0  0  0  0  0  0  0  0  0  0
    2.5074    1.0605    0.0000 O   0  0  0  0  0  0  0  0  0  0  0  0
    5.3411    1.6680    0.0000 N   0  0  0  0  0  0  0  0  0  0  0  0
    6.1192    1.3937    0.0000 C   0  0  0  0  0  0  0  0  0  0  0  0
    6.2707    0.5828    0.0000 N   0  0  0  0  0  0  0  0  0  0  0  0
    6.5407   -1.1190    0.0000 C   0  0  0  0  0  0  0  0  0  0  0  0
    6.4341   -1.9371    0.0000 N   0  0  0  0  0  0  0  0  0  0  0  0
  1  2  4  0  0  0  0
  2  3  4  0  0  0  0
  3  4  1  0  0  0  0
  4  5  4  0  0  0  0
  5  6  4  0  0  0  0
  6  7  1  0  0  0  0
  7  8  1  0  0  0  0
  8  9  2  0  0  0  0
  9 10  1  0  0  0  0
 11 10  1  0  0  0  0
 11 12  1  0  0  0  0
 12 13  1  0  0  0  0
 13 14  1  0  0  0  0
 14 15  1  0  0  0  0
 15 16  1  0  0  0  0
 11 16  1  0  0  0  0
 16 17  1  0  0  0  0
 17 18  1  0  0  0  0
 13 18  1  0  0  0  0
 11 19  1  1  0  0  0
  8 19  1  0  0  0  0
  6 20  4  0  0  0  0
 20 21  4  0  0  0  0
 21 22  4  0  0  0  0
  4 22  4  0  0  0  0
  3 23  4  0  0  0  0
 23 24  4  0  0  0  0
  1 24  4  0  0  0  0
M  END
>  <CdId>
5

>  <Mol Weight>
325.376

>  <Formula>
C16H19N7O

>  <Molecule ChEMBL ID>
CHEMBL4084621

>  <Molecule Max Phase>
None

>  <Molecular Weight>
325.38

>  <#RO5 Violations>
0

>  <AlogP>
0.92

>  <Compound Key>
1c; BMS-933043

>  <Standard Type>
IC50

>  <Standard Relation>
'>'

>  <Standard Value>
30000.0

>  <Standard Units>
nM

$$$$

  Mrv2114 03112311372D          

 29 31  0  0  0  0            999 V2000
   -1.3280   -3.2836    0.0000 C   0  0  0  0  0  0  0  0  0  0  0  0
   -0.6136   -3.6961    0.0000 N   0  0  0  0  0  0  0  0  0  0  0  0
   -0.6136   -4.5211    0.0000 C   0  0  0  0  0  0  0  0  0  0  0  0
    0.1009   -3.2836    0.0000 C   0  0  0  0  0  0  0  0  0  0  0  0
    0.1009   -2.4586    0.0000 O   0  0  0  0  0  0  0  0  0  0  0  0
    0.8154   -3.6961    0.0000 C   0  0  0  0  0  0  0  0  0  0  0  0
    1.5298   -3.2836    0.0000 C   0  0  0  0  0  0  0  0  0  0  0  0
    2.2443   -3.6961    0.0000 C   0  0  0  0  0  0  0  0  0  0  0  0
    2.2443   -4.5211    0.0000 C   0  0  0  0  0  0  0  0  0  0  0  0
    2.9588   -4.9336    0.0000 O   0  0  0  0  0  0  0  0  0  0  0  0
    3.6733   -4.5211    0.0000 C   0  0  0  0  0  0  0  0  0  0  0  0
    4.3877   -4.9336    0.0000 C   0  0  0  0  0  0  0  0  0  0  0  0
    5.1022   -4.5211    0.0000 C   0  0  0  0  0  0  0  0  0  0  0  0
    5.8167   -4.9336    0.0000 C   0  0  0  0  0  0  0  0  0  0  0  0
    6.5311   -4.5211    0.0000 C   0  0  0  0  0  0  0  0  0  0  0  0
    7.2456   -4.9336    0.0000 C   0  0  1  0  0  0  0  0  0  0  0  0
    7.9601   -4.5211    0.0000 C   0  0  0  0  0  0  0  0  0  0  0  0
    8.6746   -4.9336    0.0000 C   0  0  0  0  0  0  0  0  0  0  0  0
    8.6746   -5.7586    0.0000 C   0  0  2  0  0  0  0  0  0  0  0  0
    7.9601   -6.1711    0.0000 C   0  0  0  0  0  0  0  0  0  0  0  0
    7.2456   -5.7586    0.0000 C   0  0  0  0  0  0  0  0  0  0  0  0
    9.4282   -5.4230    0.0000 C   0  0  0  0  0  0  0  0  0  0  0  0
    9.9803   -6.0361    0.0000 O   0  0  0  0  0  0  0  0  0  0  0  0
    9.5678   -6.7506    0.0000 C   0  0  0  0  0  0  0  0  0  0  0  0
   10.3214   -7.0862    0.0000 C   0  0  0  0  0  0  0  0  0  0  0  0
    9.3128   -7.5352    0.0000 C   0  0  0  0  0  0  0  0  0  0  0  0
    8.7608   -6.5791    0.0000 C   0  0  0  0  0  0  0  0  0  0  0  0
    1.5298   -4.9336    0.0000 C   0  0  0  0  0  0  0  0  0  0  0  0
    0.8154   -4.5211    0.0000 C   0  0  0  0  0  0  0  0  0  0  0  0
  1  2  1  0  0  0  0
  2  3  1  0  0  0  0
  2  4  1  0  0  0  0
  4  5  2  0  0  0  0
  4  6  1  0  0  0  0
  6  7  4  0  0  0  0
  7  8  4  0  0  0  0
  8  9  4  0  0  0  0
  9 10  1  0  0  0  0
 10 11  1  0  0  0  0
 11 12  1  0  0  0  0
 12 13  1  0  0  0  0
 13 14  1  0  0  0  0
 14 15  1  0  0  0  0
 16 15  1  1  0  0  0
 16 17  1  0  0  0  0
 17 18  1  0  0  0  0
 19 18  1  0  0  0  0
 19 20  1  0  0  0  0
 20 21  1  0  0  0  0
 16 21  1  0  0  0  0
 19 22  1  1  0  0  0
 22 23  1  0  0  0  0
 23 24  1  0  0  0  0
 24 25  1  0  0  0  0
 24 26  1  0  0  0  0
 24 27  1  0  0  0  0
 19 27  1  0  0  0  0
  9 28  4  0  0  0  0
 28 29  4  0  0  0  0
  6 29  4  0  0  0  0
M  END
>  <CdId>
6

>  <Mol Weight>
401.591

>  <Formula>
C25H39NO3

>  <Molecule ChEMBL ID>
CHEMBL4205617

>  <Molecule Max Phase>
None

>  <Molecular Weight>
401.59

>  <#RO5 Violations>
1

>  <AlogP>
5.7

>  <Compound Key>
17

>  <Standard Type>
IC50

>  <Standard Relation>
'>'

>  <Standard Value>
10000.0

>  <Standard Units>
nM

$$$$

  Mrv2114 03112311372D          

 45 50  0  0  0  0            999 V2000
    3.5724   -1.2375    0.0000 C   0  0  0  0  0  0  0  0  0  0  0  0
    4.2868   -1.6500    0.0000 C   0  0  0  0  0  0  0  0  0  0  0  0
    4.2868   -2.4750    0.0000 N   0  0  0  0  0  0  0  0  0  0  0  0
    5.0013   -2.8875    0.0000 C   0  0  0  0  0  0  0  0  0  0  0  0
    5.7158   -2.4750    0.0000 O   0  0  0  0  0  0  0  0  0  0  0  0
    5.0013   -3.7125    0.0000 C   0  0  0  0  0  0  0  0  0  0  0  0
    5.4138   -4.4270    0.0000 C   0  0  0  0  0  0  0  0  0  0  0  0
    4.5888   -4.4270    0.0000 C   0  0  0  0  0  0  0  0  0  0  0  0
    3.5724   -2.8875    0.0000 C   0  0  0  0  0  0  0  0  0  0  0  0
    3.5724   -3.7125    0.0000 C   0  0  0  0  0  0  0  0  0  0  0  0
    2.8579   -4.1250    0.0000 C   0  0  0  0  0  0  0  0  0  0  0  0
    2.8579   -4.9500    0.0000 C   0  0  0  0  0  0  0  0  0  0  0  0
    3.5724   -5.3625    0.0000 C   0  0  0  0  0  0  0  0  0  0  0  0
    3.5724   -6.1875    0.0000 C   0  0  0  0  0  0  0  0  0  0  0  0
    2.8579   -6.6000    0.0000 C   0  0  0  0  0  0  0  0  0  0  0  0
    2.8579   -7.4250    0.0000 N   0  0  0  0  0  0  0  0  0  0  0  0
    3.5724   -7.8375    0.0000 C   0  0  0  0  0  0  0  0  0  0  0  0
    3.5724   -8.6625    0.0000 C   0  0  0  0  0  0  0  0  0  0  0  0
    2.8579   -9.0750    0.0000 N   0  0  0  0  0  0  0  0  0  0  0  0
    2.8579   -9.9000    0.0000 C   0  0  0  0  0  0  0  0  0  0  0  0
    2.1434  -10.3125    0.0000 C   0  0  0  0  0  0  0  0  0  0  0  0
    1.7309  -11.0270    0.0000 C   0  0  0  0  0  0  0  0  0  0  0  0
    1.3184  -10.3125    0.0000 C   0  0  0  0  0  0  0  0  0  0  0  0
    2.1434   -8.6625    0.0000 C   0  0  0  0  0  0  0  0  0  0  0  0
    2.1434   -7.8375    0.0000 C   0  0  0  0  0  0  0  0  0  0  0  0
    2.1434   -6.1875    0.0000 N   0  0  0  0  0  0  0  0  0  0  0  0
    2.1434   -5.3625    0.0000 C   0  0  0  0  0  0  0  0  0  0  0  0
    1.4289   -4.9500    0.0000 C   0  0  0  0  0  0  0  0  0  0  0  0
    2.1434   -3.7125    0.0000 C   0  0  0  0  0  0  0  0  0  0  0  0
    2.1434   -2.8875    0.0000 C   0  0  0  0  0  0  0  0  0  0  0  0
    1.4289   -2.4750    0.0000 C   0  0  0  0  0  0  0  0  0  0  0  0
    0.7145   -2.8875    0.0000 O   0  0  0  0  0  0  0  0  0  0  0  0
    1.4289   -1.6500    0.0000 N   0  0  0  0  0  0  0  0  0  0  0  0
    0.7145   -1.2375    0.0000 C   0  0  0  0  0  0  0  0  0  0  0  0
    0.7145   -0.4125    0.0000 C   0  0  0  0  0  0  0  0  0  0  0  0
    0.0000    0.0000    0.0000 C   0  0  0  0  0  0  0  0  0  0  0  0
   -0.7145   -0.4125    0.0000 C   0  0  0  0  0  0  0  0  0  0  0  0
    0.0000    0.8250    0.0000 C   0  0  0  0  0  0  0  0  0  0  0  0
    0.7145    1.2375    0.0000 C   0  0  0  0  0  0  0  0  0  0  0  0
    0.7145    2.0625    0.0000 C   0  0  0  0  0  0  0  0  0  0  0  0
    1.4289    0.8250    0.0000 N   0  0  0  0  0  0  0  0  0  0  0  0
    1.4289    0.0000    0.0000 C   0  0  0  0  0  0  0  0  0  0  0  0
    2.1434   -0.4125    0.0000 O   0  0  0  0  0  0  0  0  0  0  0  0
    2.8579   -2.4750    0.0000 C   0  0  0  0  0  0  0  0  0  0  0  0
    2.8579   -1.6500    0.0000 C   0  0  0  0  0  0  0  0  0  0  0  0
  1  2  1  0  0  0  0
  2  3  1  0  0  0  0
  3  4  1  0  0  0  0
  4  5  2  0  0  0  0
  4  6  1  0  0  0  0
  6  7  1  0  0  0  0
  7  8  1  0  0  0  0
  6  8  1  0  0  0  0
  3  9  1  0  0  0  0
  9 10  4  0  0  0  0
 10 11  4  0  0  0  0
 11 12  1  0  0  0  0
 12 13  4  0  0  0  0
 13 14  4  0  0  0  0
 14 15  4  0  0  0  0
 15 16  1  0  0  0  0
 16 17  1  0  0  0  0
 17 18  1  0  0  0  0
 18 19  1  0  0  0  0
 19 20  1  0  0  0  0
 20 21  1  0  0  0  0
 21 22  1  0  0  0  0
 22 23  1  0  0  0  0
 21 23  1  0  0  0  0
 19 24  1  0  0  0  0
 24 25  1  0  0  0  0
 16 25  1  0  0  0  0
 15 26  4  0  0  0  0
 26 27  4  0  0  0  0
 12 27  4  0  0  0  0
 27 28  1  0  0  0  0
 11 29  4  0  0  0  0
 29 30  4  0  0  0  0
 30 31  1  0  0  0  0
 31 32  2  0  0  0  0
 31 33  1  0  0  0  0
 33 34  1  0  0  0  0
 34 35  1  0  0  0  0
 35 36  4  0  0  0  0
 36 37  1  0  0  0  0
 36 38  4  0  0  0  0
 38 39  4  0  0  0  0
 39 40  1  0  0  0  0
 39 41  4  0  0  0  0
 41 42  4  0  0  0  0
 35 42  4  0  0  0  0
 42 43  2  0  0  0  0
 30 44  4  0  0  0  0
  9 44  4  0  0  0  0
 44 45  1  0  0  0  0
M  STY  1   1 DAT
M  SAL   1  1  41
M  SDT   1 MRV_IMPLICIT_H                                        
M  SDD   1     0.0000    0.0000    DR    ALL  0       0  
M  SED   1 IMPL_H1
M  END
>  <CdId>
7

>  <Mol Weight>
610.803

>  <Formula>
C36H46N6O3

>  <Molecule ChEMBL ID>
CHEMBL4862681

>  <Molecule Max Phase>
None

>  <Molecular Weight>
610.8

>  <#RO5 Violations>
1

>  <AlogP>
4.9

>  <Compound Key>
29

>  <Standard Type>
IC50

>  <Standard Relation>
'='

>  <Standard Value>
2440.0

>  <Standard Units>
nM

$$$$

  Mrv2114 03112311372D          

 24 27  0  0  0  0            999 V2000
    6.2102    3.5854    0.0000 F   0  0  0  0  0  0  0  0  0  0  0  0
    5.4957    3.1729    0.0000 C   0  0  0  0  0  0  0  0  0  0  0  0
    5.4957    2.3479    0.0000 C   0  0  0  0  0  0  0  0  0  0  0  0
    4.7812    1.9354    0.0000 C   0  0  0  0  0  0  0  0  0  0  0  0
    4.0668    2.3479    0.0000 C   0  0  0  0  0  0  0  0  0  0  0  0
    3.3523    1.9354    0.0000 C   0  0  0  0  0  0  0  0  0  0  0  0
    3.3523    1.1104    0.0000 C   0  0  0  0  0  0  0  0  0  0  0  0
    2.6378    0.6979    0.0000 C   0  0  0  0  0  0  0  0  0  0  0  0
    2.6378   -0.1271    0.0000 N   0  0  0  0  0  0  0  0  0  0  0  0
    1.9233   -0.5396    0.0000 C   0  0  0  0  0  0  0  0  0  0  0  0
    1.9233   -1.3646    0.0000 C   0  0  0  0  0  0  0  0  0  0  0  0
    1.2089   -1.7771    0.0000 C   0  0  0  0  0  0  0  0  0  0  0  0
    0.4944   -1.3646    0.0000 N   0  0  0  0  0  0  0  0  0  0  0  0
    0.4944   -0.5396    0.0000 C   0  0  0  0  0  0  0  0  0  0  0  0
    1.2089   -0.1271    0.0000 C   0  0  0  0  0  0  0  0  0  0  0  0
    1.9233    1.1104    0.0000 C   0  0  0  0  0  0  0  0  0  0  0  0
    1.1387    0.8555    0.0000 C   0  0  0  0  0  0  0  0  0  0  0  0
    0.6538    1.5229    0.0000 C   0  0  0  0  0  0  0  0  0  0  0  0
    1.1387    2.1904    0.0000 N   0  0  0  0  0  0  0  0  0  0  0  0
    1.9233    1.9354    0.0000 C   0  0  0  0  0  0  0  0  0  0  0  0
    2.6378    2.3479    0.0000 N   0  0  0  0  0  0  0  0  0  0  0  0
    4.0668    3.1729    0.0000 C   0  0  0  0  0  0  0  0  0  0  0  0
    4.7812    3.5854    0.0000 C   0  0  0  0  0  0  0  0  0  0  0  0
    4.7812    4.4104    0.0000 F   0  0  0  0  0  0  0  0  0  0  0  0
  1  2  1  0  0  0  0
  2  3  4  0  0  0  0
  3  4  4  0  0  0  0
  4  5  4  0  0  0  0
  5  6  1  0  0  0  0
  6  7  4  0  0  0  0
  7  8  4  0  0  0  0
  8  9  1  0  0  0  0
  9 10  1  0  0  0  0
 10 11  4  0  0  0  0
 11 12  4  0  0  0  0
 12 13  4  0  0  0  0
 13 14  4  0  0  0  0
 14 15  4  0  0  0  0
 10 15  4  0  0  0  0
  8 16  4  0  0  0  0
 16 17  4  0  0  0  0
 17 18  4  0  0  0  0
 18 19  4  0  0  0  0
 19 20  4  0  0  0  0
 16 20  4  0  0  0  0
 20 21  4  0  0  0  0
  6 21  4  0  0  0  0
  5 22  4  0  0  0  0
 22 23  4  0  0  0  0
  2 23  4  0  0  0  0
 23 24  1  0  0  0  0
M  STY  1   1 DAT
M  SAL   1  1  19
M  SDT   1 MRV_IMPLICIT_H                                        
M  SDD   1     0.0000    0.0000    DR    ALL  0       0  
M  SED   1 IMPL_H1
M  END
>  <CdId>
8

>  <Mol Weight>
322.319

>  <Formula>
C18H12F2N4

>  <Molecule ChEMBL ID>
CHEMBL4526347

>  <Molecule Max Phase>
None

>  <Molecular Weight>
322.32

>  <#RO5 Violations>
0

>  <AlogP>
4.65

>  <Compound Key>
3

>  <Standard Type>
IC50

>  <Standard Relation>
'='

>  <Standard Value>
630.96

>  <Standard Units>
nM

$$$$

  Mrv2114 03112311372D          

 26 28  0  0  1  0            999 V2000
    7.1447   10.4786    0.0000 C   0  0  0  0  0  0  0  0  0  0  0  0
    6.4302   10.0661    0.0000 C   0  0  0  0  0  0  0  0  0  0  0  0
    6.4302    9.2411    0.0000 C   0  0  0  0  0  0  0  0  0  0  0  0
    5.7158    8.8286    0.0000 C   0  0  0  0  0  0  0  0  0  0  0  0
    5.7158    8.0036    0.0000 N   0  0  0  0  0  0  0  0  0  0  0  0
    5.0013    7.5911    0.0000 C   0  0  0  0  0  0  0  0  0  0  0  0
    4.2868    8.0036    0.0000 O   0  0  0  0  0  0  0  0  0  0  0  0
    5.0013    6.7661    0.0000 C   0  0  0  0  0  0  0  0  0  0  0  0
    5.7158    6.3536    0.0000 C   0  0  0  0  0  0  0  0  0  0  0  0
    5.7158    5.5286    0.0000 C   0  0  0  0  0  0  0  0  0  0  0  0
    5.0013    5.1161    0.0000 C   0  0  0  0  0  0  0  0  0  0  0  0
    4.2868    5.5286    0.0000 C   0  0  0  0  0  0  0  0  0  0  0  0
    3.5724    5.1161    0.0000 S   0  0  0  0  0  0  0  0  0  0  0  0
    3.9849    4.4016    0.0000 O   0  0  0  0  0  0  0  0  0  0  0  0
    3.1599    5.8305    0.0000 O   0  0  0  0  0  0  0  0  0  0  0  0
    2.8579    4.7036    0.0000 N   0  0  0  0  0  0  0  0  0  0  0  0
    2.8579    3.8786    0.0000 C   0  0  1  0  0  0  0  0  0  0  0  0
    3.5253    3.3937    0.0000 C   0  0  0  0  0  0  0  0  0  0  0  0
    3.2704    2.6090    0.0000 C   0  0  0  0  0  0  0  0  0  0  0  0
    2.4454    2.6090    0.0000 O   0  0  0  0  0  0  0  0  0  0  0  0
    2.1904    3.3937    0.0000 C   0  0  0  0  0  0  0  0  0  0  0  0
    4.2868    6.3536    0.0000 C   0  0  0  0  0  0  0  0  0  0  0  0
    5.0013    9.2411    0.0000 C   0  0  0  0  0  0  0  0  0  0  0  0
    5.0013   10.0661    0.0000 C   0  0  0  0  0  0  0  0  0  0  0  0
    5.7158   10.4786    0.0000 C   0  0  0  0  0  0  0  0  0  0  0  0
    5.7158   11.3036    0.0000 F   0  0  0  0  0  0  0  0  0  0  0  0
  1  2  1  0  0  0  0
  2  3  4  0  0  0  0
  3  4  4  0  0  0  0
  4  5  1  0  0  0  0
  5  6  1  0  0  0  0
  6  7  2  0  0  0  0
  6  8  1  0  0  0  0
  8  9  4  0  0  0  0
  9 10  4  0  0  0  0
 10 11  4  0  0  0  0
 11 12  4  0  0  0  0
 12 13  1  0  0  0  0
 13 14  2  0  0  0  0
 13 15  2  0  0  0  0
 13 16  1  0  0  0  0
 17 16  1  1  0  0  0
 17 18  1  0  0  0  0
 18 19  1  0  0  0  0
 19 20  1  0  0  0  0
 20 21  1  0  0  0  0
 17 21  1  0  0  0  0
 12 22  4  0  0  0  0
  8 22  4  0  0  0  0
  4 23  4  0  0  0  0
 23 24  4  0  0  0  0
 24 25  4  0  0  0  0
  2 25  4  0  0  0  0
 25 26  1  0  0  0  0
M  END
>  <CdId>
9

>  <Mol Weight>
378.42

>  <Formula>
C18H19FN2O4S

>  <Molecule ChEMBL ID>
CHEMBL4159471

>  <Molecule Max Phase>
None

>  <Molecular Weight>
378.43

>  <#RO5 Violations>
0

>  <AlogP>
2.45

>  <Compound Key>
54

>  <Standard Type>
IC50

>  <Standard Relation>
'>'

>  <Standard Value>
10000.0

>  <Standard Units>
nM

$$$$

  Mrv2114 03112311372D          

 40 42  0  0  1  0            999 V2000
    0.8212    2.8259    0.0000 C   0  0  0  0  0  0  0  0  0  0  0  0
    0.1067    3.2384    0.0000 C   0  0  2  0  0  0  0  0  0  0  0  0
   -0.6078    2.8259    0.0000 N   0  0  0  0  0  0  0  0  0  0  0  0
   -0.6078    2.0009    0.0000 S   0  0  0  0  0  0  0  0  0  0  0  0
    0.2172    2.0009    0.0000 O   0  0  0  0  0  0  0  0  0  0  0  0
   -1.4328    2.0009    0.0000 O   0  0  0  0  0  0  0  0  0  0  0  0
   -0.6078    1.1759    0.0000 C   0  0  0  0  0  0  0  0  0  0  0  0
   -1.3222    0.7634    0.0000 C   0  0  0  0  0  0  0  0  0  0  0  0
   -1.3222   -0.0616    0.0000 C   0  0  0  0  0  0  0  0  0  0  0  0
   -0.6078   -0.4741    0.0000 C   0  0  0  0  0  0  0  0  0  0  0  0
   -0.6078   -1.2991    0.0000 C   0  0  0  0  0  0  0  0  0  0  0  0
    0.0597   -1.7840    0.0000 S   0  0  0  0  0  0  0  0  0  0  0  0
   -0.1953   -2.5687    0.0000 C   0  0  0  0  0  0  0  0  0  0  0  0
    0.2897   -3.2361    0.0000 C   0  0  0  0  0  0  0  0  0  0  0  0
    1.1101   -3.1499    0.0000 O   0  0  0  0  0  0  0  0  0  0  0  0
   -0.0459   -3.9898    0.0000 N   0  0  0  0  0  0  0  0  0  0  0  0
    0.4390   -4.6572    0.0000 C   0  0  0  0  0  0  0  0  0  0  0  0
    0.1035   -5.4109    0.0000 C   0  0  0  0  0  0  0  0  0  0  0  0
   -0.2321   -6.1646    0.0000 C   0  0  0  0  0  0  0  0  0  0  0  0
    0.8571   -5.7464    0.0000 C   0  0  0  0  0  0  0  0  0  0  0  0
   -0.6502   -5.0753    0.0000 O   0  0  0  0  0  0  0  0  0  0  0  0
   -1.0203   -2.5687    0.0000 N   0  0  0  0  0  0  0  0  0  0  0  0
   -1.2752   -1.7840    0.0000 C   0  0  0  0  0  0  0  0  0  0  0  0
   -2.0598   -1.5291    0.0000 C   0  0  0  0  0  0  0  0  0  0  0  0
   -2.2314   -0.7221    0.0000 O   0  0  0  0  0  0  0  0  0  0  0  0
   -2.6729   -2.0811    0.0000 N   0  0  0  0  0  0  0  0  0  0  0  0
   -2.5014   -2.8881    0.0000 C   0  0  0  0  0  0  0  0  0  0  0  0
   -3.1145   -3.4401    0.0000 C   0  0  0  0  0  0  0  0  0  0  0  0
   -3.8991   -3.1852    0.0000 C   0  0  0  0  0  0  0  0  0  0  0  0
   -4.5122   -3.7372    0.0000 F   0  0  0  0  0  0  0  0  0  0  0  0
   -4.0706   -2.3782    0.0000 C   0  0  0  0  0  0  0  0  0  0  0  0
   -3.4575   -1.8262    0.0000 C   0  0  0  0  0  0  0  0  0  0  0  0
    0.1067   -0.0616    0.0000 C   0  0  0  0  0  0  0  0  0  0  0  0
    0.8212   -0.4741    0.0000 Cl  0  0  0  0  0  0  0  0  0  0  0  0
    0.1067    0.7634    0.0000 C   0  0  0  0  0  0  0  0  0  0  0  0
    0.8212    1.1759    0.0000 Cl  0  0  0  0  0  0  0  0  0  0  0  0
    0.1067    4.0634    0.0000 C   0  0  0  0  0  0  0  0  0  0  0  0
    0.1067    4.8884    0.0000 F   0  0  0  0  0  0  0  0  0  0  0  0
    0.9317    4.0634    0.0000 F   0  0  0  0  0  0  0  0  0  0  0  0
   -0.7183    4.0634    0.0000 F   0  0  0  0  0  0  0  0  0  0  0  0
  2  1  1  6  0  0  0
  2  3  1  0  0  0  0
  3  4  1  0  0  0  0
  4  5  2  0  0  0  0
  4  6  2  0  0  0  0
  4  7  1  0  0  0  0
  7  8  4  0  0  0  0
  8  9  4  0  0  0  0
  9 10  4  0  0  0  0
 10 11  1  0  0  0  0
 11 12  4  0  0  0  0
 12 13  4  0  0  0  0
 13 14  1  0  0  0  0
 14 15  2  0  0  0  0
 14 16  1  0  0  0  0
 16 17  1  0  0  0  0
 17 18  1  0  0  0  0
 18 19  1  0  0  0  0
 18 20  1  0  0  0  0
 18 21  1  0  0  0  0
 13 22  4  0  0  0  0
 22 23  4  0  0  0  0
 11 23  4  0  0  0  0
 23 24  1  0  0  0  0
 24 25  2  0  0  0  0
 24 26  1  0  0  0  0
 26 27  1  0  0  0  0
 27 28  1  0  0  0  0
 28 29  1  0  0  0  0
 29 30  1  0  0  0  0
 29 31  1  0  0  0  0
 31 32  1  0  0  0  0
 26 32  1  0  0  0  0
 10 33  4  0  0  0  0
 33 34  1  0  0  0  0
 33 35  4  0  0  0  0
  7 35  4  0  0  0  0
 35 36  1  0  0  0  0
  2 37  1  0  0  0  0
 37 38  1  0  0  0  0
 37 39  1  0  0  0  0
 37 40  1  0  0  0  0
M  END
>  <CdId>
10

>  <Mol Weight>
649.5

>  <Formula>
C23H26Cl2F4N4O5S2

>  <Molecule ChEMBL ID>
CHEMBL4643996

>  <Molecule Max Phase>
None

>  <Molecular Weight>
649.52

>  <#RO5 Violations>
1

>  <AlogP>
4.42

>  <Compound Key>
1g

>  <Standard Type>
IC50

>  <Standard Relation>
'>'

>  <Standard Value>
10000.0

>  <Standard Units>
nM

$$$$

  Mrv2114 03112311372D          

 37 41  0  0  1  0            999 V2000
    7.4269   -4.9002    0.0000 C   0  0  0  0  0  0  0  0  0  0  0  0
    7.1447   -4.1250    0.0000 C   0  0  0  0  0  0  0  0  0  0  0  0
    7.9572   -3.9817    0.0000 C   0  0  0  0  0  0  0  0  0  0  0  0
    6.4302   -4.5375    0.0000 C   0  0  0  0  0  0  0  0  0  0  0  0
    5.7158   -4.1250    0.0000 C   0  0  0  0  0  0  0  0  0  0  0  0
    5.7158   -3.3000    0.0000 C   0  0  0  0  0  0  0  0  0  0  0  0
    5.0013   -2.8875    0.0000 N   0  0  0  0  0  0  0  0  0  0  0  0
    4.2868   -3.3000    0.0000 C   0  0  0  0  0  0  0  0  0  0  0  0
    3.5724   -2.8875    0.0000 C   0  0  0  0  0  0  0  0  0  0  0  0
    3.9849   -2.1730    0.0000 C   0  0  0  0  0  0  0  0  0  0  0  0
    3.1599   -3.6020    0.0000 C   0  0  0  0  0  0  0  0  0  0  0  0
    2.8579   -2.4750    0.0000 C   0  0  0  0  0  0  0  0  0  0  0  0
    2.1434   -2.8875    0.0000 C   0  0  0  0  0  0  0  0  0  0  0  0
    1.4289   -2.4750    0.0000 N   0  0  0  0  0  0  0  0  0  0  0  0
    0.7145   -2.8875    0.0000 C   0  0  0  0  0  0  0  0  0  0  0  0
    0.0000   -2.4750    0.0000 C   0  0  1  0  0  0  0  0  0  0  0  0
   -0.7145   -2.8875    0.0000 C   0  0  0  0  0  0  0  0  0  0  0  0
   -1.4289   -2.4750    0.0000 C   0  0  0  0  0  0  0  0  0  0  0  0
   -2.1434   -2.8875    0.0000 C   0  0  0  0  0  0  0  0  0  0  0  0
   -2.8579   -2.4750    0.0000 C   0  0  0  0  0  0  0  0  0  0  0  0
   -2.8579   -1.6500    0.0000 C   0  0  0  0  0  0  0  0  0  0  0  0
   -2.1434   -1.2375    0.0000 C   0  0  0  0  0  0  0  0  0  0  0  0
   -1.4289   -1.6500    0.0000 C   0  0  0  0  0  0  0  0  0  0  0  0
   -0.7145   -1.2375    0.0000 C   0  0  0  0  0  0  0  0  0  0  0  0
    0.0000   -1.6500    0.0000 N   0  0  0  0  0  0  0  0  0  0  0  0
    1.4289   -1.6500    0.0000 C   0  0  1  0  0  0  0  0  0  0  0  0
    0.7145   -1.2375    0.0000 C   0  0  0  0  0  0  0  0  0  0  0  0
    0.7145   -0.4125    0.0000 C   0  0  0  0  0  0  0  0  0  0  0  0
    1.4289    0.0000    0.0000 C   0  0  0  0  0  0  0  0  0  0  0  0
    2.1434   -0.4125    0.0000 C   0  0  0  0  0  0  0  0  0  0  0  0
    2.8579    0.0000    0.0000 C   0  0  0  0  0  0  0  0  0  0  0  0
    3.5724   -0.4125    0.0000 C   0  0  0  0  0  0  0  0  0  0  0  0
    3.5724   -1.2375    0.0000 C   0  0  0  0  0  0  0  0  0  0  0  0
    2.8579   -1.6500    0.0000 N   0  0  0  0  0  0  0  0  0  0  0  0
    2.1434   -1.2375    0.0000 C   0  0  0  0  0  0  0  0  0  0  0  0
    6.4302   -2.8875    0.0000 C   0  0  0  0  0  0  0  0  0  0  0  0
    7.1447   -3.3000    0.0000 C   0  0  0  0  0  0  0  0  0  0  0  0
  1  2  1  0  0  0  0
  2  3  1  0  0  0  0
  2  4  1  0  0  0  0
  4  5  1  0  0  0  0
  5  6  1  0  0  0  0
  6  7  1  0  0  0  0
  7  8  1  0  0  0  0
  8  9  1  0  0  0  0
  9 10  1  0  0  0  0
  9 11  1  0  0  0  0
  9 12  1  0  0  0  0
 12 13  1  0  0  0  0
 13 14  1  0  0  0  0
 14 15  1  0  0  0  0
 16 15  1  1  0  0  0
 16 17  1  0  0  0  0
 17 18  1  0  0  0  0
 18 19  4  0  0  0  0
 19 20  4  0  0  0  0
 20 21  4  0  0  0  0
 21 22  4  0  0  0  0
 22 23  4  0  0  0  0
 18 23  4  0  0  0  0
 23 24  1  0  0  0  0
 24 25  1  0  0  0  0
 16 25  1  0  0  0  0
 26 14  1  1  0  0  0
 26 27  1  0  0  0  0
 27 28  1  0  0  0  0
 28 29  1  0  0  0  0
 29 30  1  0  0  0  0
 30 31  4  0  0  0  0
 31 32  4  0  0  0  0
 32 33  4  0  0  0  0
 33 34  4  0  0  0  0
 34 35  4  0  0  0  0
 30 35  4  0  0  0  0
 26 35  1  0  0  0  0
  6 36  1  0  0  0  0
 36 37  1  0  0  0  0
  2 37  1  0  0  0  0
M  END
>  <CdId>
11

>  <Mol Weight>
502.791

>  <Formula>
C33H50N4

>  <Molecule ChEMBL ID>
CHEMBL4086662

>  <Molecule Max Phase>
None

>  <Molecular Weight>
502.79

>  <#RO5 Violations>
2

>  <AlogP>
6.45

>  <Compound Key>
49g

>  <Standard Type>
IC50

>  <Standard Relation>
'<'

>  <Standard Value>
5000.0

>  <Standard Units>
nM

$$$$

  Mrv2114 03112311372D          

 31 34  0  0  0  0            999 V2000
    0.9681   -6.5147    0.0000 C   0  0  0  0  0  0  0  0  0  0  0  0
    0.4161   -5.9016    0.0000 O   0  0  0  0  0  0  0  0  0  0  0  0
    0.6710   -5.1170    0.0000 C   0  0  0  0  0  0  0  0  0  0  0  0
    1.4780   -4.9454    0.0000 O   0  0  0  0  0  0  0  0  0  0  0  0
    0.1190   -4.5039    0.0000 N   0  0  0  0  0  0  0  0  0  0  0  0
    0.3739   -3.7192    0.0000 C   0  0  0  0  0  0  0  0  0  0  0  0
   -0.1781   -3.1062    0.0000 C   0  0  0  0  0  0  0  0  0  0  0  0
   -0.9851   -3.2777    0.0000 N   0  0  0  0  0  0  0  0  0  0  0  0
    0.0768   -2.3215    0.0000 N   0  0  0  0  0  0  0  0  0  0  0  0
    0.8838   -2.1500    0.0000 C   0  0  0  0  0  0  0  0  0  0  0  0
    1.1387   -1.3654    0.0000 C   0  0  0  0  0  0  0  0  0  0  0  0
    0.6538   -0.6979    0.0000 N   0  0  0  0  0  0  0  0  0  0  0  0
    1.1387   -0.0305    0.0000 N   0  0  0  0  0  0  0  0  0  0  0  0
    0.8838    0.7541    0.0000 C   0  0  0  0  0  0  0  0  0  0  0  0
    1.4358    1.3672    0.0000 C   0  0  0  0  0  0  0  0  0  0  0  0
    2.2428    1.1957    0.0000 C   0  0  0  0  0  0  0  0  0  0  0  0
    2.7948    1.8088    0.0000 C   0  0  0  0  0  0  0  0  0  0  0  0
    2.5399    2.5934    0.0000 C   0  0  0  0  0  0  0  0  0  0  0  0
    1.7329    2.7649    0.0000 C   0  0  0  0  0  0  0  0  0  0  0  0
    1.1809    2.1518    0.0000 C   0  0  0  0  0  0  0  0  0  0  0  0
    0.3739    2.3234    0.0000 F   0  0  0  0  0  0  0  0  0  0  0  0
    1.9233   -0.2854    0.0000 C   0  0  0  0  0  0  0  0  0  0  0  0
    2.6378    0.1271    0.0000 N   0  0  0  0  0  0  0  0  0  0  0  0
    3.3523   -0.2854    0.0000 C   0  0  0  0  0  0  0  0  0  0  0  0
    3.3523   -1.1104    0.0000 C   0  0  0  0  0  0  0  0  0  0  0  0
    4.0668   -1.5229    0.0000 F   0  0  0  0  0  0  0  0  0  0  0  0
    2.6378   -1.5229    0.0000 C   0  0  0  0  0  0  0  0  0  0  0  0
    1.9233   -1.1104    0.0000 C   0  0  0  0  0  0  0  0  0  0  0  0
    1.4358   -2.7631    0.0000 N   0  0  0  0  0  0  0  0  0  0  0  0
    1.1809   -3.5477    0.0000 C   0  0  0  0  0  0  0  0  0  0  0  0
    1.7329   -4.1608    0.0000 N   0  0  0  0  0  0  0  0  0  0  0  0
  1  2  1  0  0  0  0
  2  3  1  0  0  0  0
  3  4  2  0  0  0  0
  3  5  1  0  0  0  0
  5  6  1  0  0  0  0
  6  7  4  0  0  0  0
  7  8  1  0  0  0  0
  7  9  4  0  0  0  0
  9 10  4  0  0  0  0
 10 11  1  0  0  0  0
 11 12  4  0  0  0  0
 12 13  4  0  0  0  0
 13 14  1  0  0  0  0
 14 15  1  0  0  0  0
 15 16  4  0  0  0  0
 16 17  4  0  0  0  0
 17 18  4  0  0  0  0
 18 19  4  0  0  0  0
 19 20  4  0  0  0  0
 15 20  4  0  0  0  0
 20 21  1  0  0  0  0
 13 22  4  0  0  0  0
 22 23  4  0  0  0  0
 23 24  4  0  0  0  0
 24 25  4  0  0  0  0
 25 26  1  0  0  0  0
 25 27  4  0  0  0  0
 27 28  4  0  0  0  0
 11 28  4  0  0  0  0
 22 28  4  0  0  0  0
 10 29  4  0  0  0  0
 29 30  4  0  0  0  0
  6 30  4  0  0  0  0
 30 31  1  0  0  0  0
M  END
>  <CdId>
12

>  <Mol Weight>
426.388

>  <Formula>
C19H16F2N8O2

>  <Molecule ChEMBL ID>
CHEMBL4066936

>  <Molecule Name>
VERICIGUAT

>  <Molecule Max Phase>
4

>  <Molecular Weight>
426.39

>  <#RO5 Violations>
0

>  <AlogP>
2.56

>  <Compound Key>
24

>  <Standard Type>
IC50

>  <Standard Relation>
'>'

>  <Standard Value>
50000.0

>  <Standard Units>
nM

$$$$

  Mrv2114 03112311372D          

 29 31  0  0  1  0            999 V2000
    2.8579    0.0000    0.0000 C   0  0  0  0  0  0  0  0  0  0  0  0
    3.5724    0.4125    0.0000 C   0  0  0  0  0  0  0  0  0  0  0  0
    4.2868    0.0000    0.0000 C   0  0  0  0  0  0  0  0  0  0  0  0
    5.0013    0.4125    0.0000 C   0  0  0  0  0  0  0  0  0  0  0  0
    5.7158    0.0000    0.0000 N   0  0  0  0  0  0  0  0  0  0  0  0
    6.4302    0.4125    0.0000 C   0  0  0  0  0  0  0  0  0  0  0  0
    6.4302    1.2375    0.0000 N   0  0  0  0  0  0  0  0  0  0  0  0
    7.1447    1.6500    0.0000 C   0  0  0  0  0  0  0  0  0  0  0  0
    7.1447    2.4750    0.0000 N   0  0  0  0  0  0  0  0  0  0  0  0
    7.8592    1.2375    0.0000 N   0  0  0  0  0  0  0  0  0  0  0  0
    7.8592    0.4125    0.0000 C   0  0  0  0  0  0  0  0  0  0  0  0
    8.5737    0.0000    0.0000 C   0  0  0  0  0  0  0  0  0  0  0  0
    8.5737   -0.8250    0.0000 C   0  0  0  0  0  0  0  0  0  0  0  0
    7.8592   -1.2375    0.0000 C   0  0  0  0  0  0  0  0  0  0  0  0
    7.1447   -0.8250    0.0000 C   0  0  0  0  0  0  0  0  0  0  0  0
    6.4302   -1.2375    0.0000 C   0  0  0  0  0  0  0  0  0  0  0  0
    5.7158   -0.8250    0.0000 O   0  0  0  0  0  0  0  0  0  0  0  0
    6.4302   -2.0625    0.0000 N   0  0  0  0  0  0  0  0  0  0  0  0
    5.7158   -2.4750    0.0000 C   0  0  1  0  0  0  0  0  0  0  0  0
    5.0013   -2.0625    0.0000 C   0  0  0  0  0  0  0  0  0  0  0  0
    5.7158   -3.3000    0.0000 C   0  0  0  0  0  0  0  0  0  0  0  0
    6.4302   -3.7125    0.0000 C   0  0  0  0  0  0  0  0  0  0  0  0
    6.4302   -4.5375    0.0000 C   0  0  0  0  0  0  0  0  0  0  0  0
    5.7158   -4.9500    0.0000 C   0  0  0  0  0  0  0  0  0  0  0  0
    5.0013   -4.5375    0.0000 C   0  0  0  0  0  0  0  0  0  0  0  0
    4.2868   -4.9500    0.0000 O   0  0  0  0  0  0  0  0  0  0  0  0
    4.2868   -5.7750    0.0000 C   0  0  0  0  0  0  0  0  0  0  0  0
    5.0013   -3.7125    0.0000 C   0  0  0  0  0  0  0  0  0  0  0  0
    7.1447    0.0000    0.0000 C   0  0  0  0  0  0  0  0  0  0  0  0
  1  2  1  0  0  0  0
  2  3  1  0  0  0  0
  3  4  1  0  0  0  0
  4  5  1  0  0  0  0
  5  6  1  0  0  0  0
  6  7  4  0  0  0  0
  7  8  4  0  0  0  0
  8  9  1  0  0  0  0
  8 10  4  0  0  0  0
 10 11  4  0  0  0  0
 11 12  4  0  0  0  0
 12 13  4  0  0  0  0
 13 14  4  0  0  0  0
 14 15  4  0  0  0  0
 15 16  1  0  0  0  0
 16 17  2  0  0  0  0
 16 18  1  0  0  0  0
 19 18  1  0  0  0  0
 19 20  1  6  0  0  0
 19 21  1  0  0  0  0
 21 22  4  0  0  0  0
 22 23  4  0  0  0  0
 23 24  4  0  0  0  0
 24 25  4  0  0  0  0
 25 26  1  0  0  0  0
 26 27  1  0  0  0  0
 25 28  4  0  0  0  0
 21 28  4  0  0  0  0
 15 29  4  0  0  0  0
  6 29  4  0  0  0  0
 11 29  4  0  0  0  0
M  END
>  <CdId>
13

>  <Mol Weight>
393.491

>  <Formula>
C22H27N5O2

>  <Molecule ChEMBL ID>
CHEMBL4205717

>  <Molecule Max Phase>
None

>  <Molecular Weight>
393.49

>  <#RO5 Violations>
0

>  <AlogP>
3.92

>  <Compound Key>
49

>  <Standard Type>
IC50

$$$$

  Mrv2114 03112311372D          

 29 32  0  0  1  0            999 V2000
    0.0000   -1.6500    0.0000 C   0  0  0  0  0  0  0  0  0  0  0  0
    0.0000   -2.4750    0.0000 C   0  0  0  0  0  0  0  0  0  0  0  0
    0.7145   -2.8875    0.0000 C   0  0  0  0  0  0  0  0  0  0  0  0
    1.4289   -2.4750    0.0000 N   0  0  0  0  0  0  0  0  0  0  0  0
    2.1434   -2.8875    0.0000 C   0  0  0  0  0  0  0  0  0  0  0  0
    2.1434   -3.7125    0.0000 C   0  0  1  0  0  0  0  0  0  0  0  0
    1.4289   -4.1250    0.0000 C   0  0  0  0  0  0  0  0  0  0  0  0
    1.4289   -4.9500    0.0000 C   0  0  0  0  0  0  0  0  0  0  0  0
    0.7145   -5.3625    0.0000 C   0  0  0  0  0  0  0  0  0  0  0  0
    0.7145   -6.1875    0.0000 C   0  0  0  0  0  0  0  0  0  0  0  0
    1.4289   -6.6000    0.0000 C   0  0  0  0  0  0  0  0  0  0  0  0
    2.1434   -6.1875    0.0000 C   0  0  0  0  0  0  0  0  0  0  0  0
    2.1434   -5.3625    0.0000 C   0  0  0  0  0  0  0  0  0  0  0  0
    2.8579   -4.9500    0.0000 C   0  0  0  0  0  0  0  0  0  0  0  0
    2.8579   -4.1250    0.0000 N   0  0  0  0  0  0  0  0  0  0  0  0
    1.4289   -1.6500    0.0000 C   0  0  1  0  0  0  0  0  0  0  0  0
    0.7145   -1.2375    0.0000 C   0  0  0  0  0  0  0  0  0  0  0  0
    0.7145   -0.4125    0.0000 C   0  0  0  0  0  0  0  0  0  0  0  0
    1.4289    0.0000    0.0000 C   0  0  0  0  0  0  0  0  0  0  0  0
    2.1434   -0.4125    0.0000 C   0  0  0  0  0  0  0  0  0  0  0  0
    2.8579    0.0000    0.0000 C   0  0  0  0  0  0  0  0  0  0  0  0
    3.5724   -0.4125    0.0000 C   0  0  0  0  0  0  0  0  0  0  0  0
    3.5724   -1.2375    0.0000 C   0  0  0  0  0  0  0  0  0  0  0  0
    2.8579   -1.6500    0.0000 N   0  0  0  0  0  0  0  0  0  0  0  0
    2.1434   -1.2375    0.0000 C   0  0  0  0  0  0  0  0  0  0  0  0
   -0.7145   -2.8875    0.0000 C   0  0  0  0  0  0  0  0  0  0  0  0
   -0.7145   -3.7125    0.0000 F   0  0  0  0  0  0  0  0  0  0  0  0
   -1.4289   -2.4750    0.0000 C   0  0  0  0  0  0  0  0  0  0  0  0
   -1.4289   -1.6500    0.0000 N   0  0  0  0  0  0  0  0  0  0  0  0
  1  2  1  0  0  0  0
  2  3  1  0  0  0  0
  3  4  1  0  0  0  0
  4  5  1  0  0  0  0
  6  5  1  6  0  0  0
  6  7  1  0  0  0  0
  7  8  1  0  0  0  0
  8  9  4  0  0  0  0
  9 10  4  0  0  0  0
 10 11  4  0  0  0  0
 11 12  4  0  0  0  0
 12 13  4  0  0  0  0
  8 13  4  0  0  0  0
 13 14  1  0  0  0  0
 14 15  1  0  0  0  0
  6 15  1  0  0  0  0
 16  4  1  1  0  0  0
 16 17  1  0  0  0  0
 17 18  1  0  0  0  0
 18 19  1  0  0  0  0
 19 20  1  0  0  0  0
 20 21  4  0  0  0  0
 21 22  4  0  0  0  0
 22 23  4  0  0  0  0
 23 24  4  0  0  0  0
 24 25  4  0  0  0  0
 20 25  4  0  0  0  0
 16 25  1  0  0  0  0
  2 26  2  0  0  0  0
 26 27  1  0  0  0  0
 26 28  1  0  0  0  0
 28 29  1  0  0  0  0
M  END
>  <CdId>
14

>  <Mol Weight>
394.538

>  <Formula>
C24H31FN4

>  <Molecule ChEMBL ID>
CHEMBL4169450

>  <Molecule Max Phase>
None

>  <Molecular Weight>
394.54

>  <#RO5 Violations>
0

>  <AlogP>
3.68

>  <Compound Key>
4g

>  <Standard Type>
IC50

>  <Standard Relation>
'='

>  <Standard Value>
18000.0

>  <Standard Units>
nM

$$$$

  Mrv2114 03112311372D          

 30 33  0  0  1  0            999 V2000
    0.7145   -1.2375    0.0000 C   0  0  0  0  0  0  0  0  0  0  0  0
    0.7145   -0.4125    0.0000 C   0  0  2  0  0  0  0  0  0  0  0  0
    0.0000    0.0000    0.0000 C   0  0  0  0  0  0  0  0  0  0  0  0
   -0.7846   -0.2549    0.0000 N   0  0  0  0  0  0  0  0  0  0  0  0
   -1.2695    0.4125    0.0000 N   0  0  0  0  0  0  0  0  0  0  0  0
   -0.7846    1.0799    0.0000 N   0  0  0  0  0  0  0  0  0  0  0  0
   -1.0396    1.8646    0.0000 C   0  0  0  0  0  0  0  0  0  0  0  0
   -1.8465    2.0361    0.0000 N   0  0  0  0  0  0  0  0  0  0  0  0
   -2.1015    2.8207    0.0000 C   0  0  0  0  0  0  0  0  0  0  0  0
   -1.5494    3.4338    0.0000 C   0  0  0  0  0  0  0  0  0  0  0  0
   -1.8044    4.2184    0.0000 F   0  0  0  0  0  0  0  0  0  0  0  0
   -0.7425    3.2623    0.0000 C   0  0  0  0  0  0  0  0  0  0  0  0
   -0.4875    2.4777    0.0000 N   0  0  0  0  0  0  0  0  0  0  0  0
    0.0000    0.8250    0.0000 C   0  0  0  0  0  0  0  0  0  0  0  0
    0.7145    1.2375    0.0000 C   0  0  0  0  0  0  0  0  0  0  0  0
    1.4289    0.8250    0.0000 C   0  0  0  0  0  0  0  0  0  0  0  0
    1.4289    0.0000    0.0000 N   0  0  0  0  0  0  0  0  0  0  0  0
    2.1434   -0.4125    0.0000 C   0  0  0  0  0  0  0  0  0  0  0  0
    2.1434   -1.2375    0.0000 O   0  0  0  0  0  0  0  0  0  0  0  0
    2.8579    0.0000    0.0000 C   0  0  0  0  0  0  0  0  0  0  0  0
    2.8579    0.8250    0.0000 C   0  0  0  0  0  0  0  0  0  0  0  0
    3.5724    1.2375    0.0000 C   0  0  0  0  0  0  0  0  0  0  0  0
    4.2868    0.8250    0.0000 C   0  0  0  0  0  0  0  0  0  0  0  0
    4.2868    0.0000    0.0000 C   0  0  0  0  0  0  0  0  0  0  0  0
    5.0013   -0.4125    0.0000 C   0  0  0  0  0  0  0  0  0  0  0  0
    5.7158   -0.8250    0.0000 F   0  0  0  0  0  0  0  0  0  0  0  0
    4.5888   -1.1270    0.0000 F   0  0  0  0  0  0  0  0  0  0  0  0
    5.4138    0.3020    0.0000 F   0  0  0  0  0  0  0  0  0  0  0  0
    3.5724   -0.4125    0.0000 C   0  0  0  0  0  0  0  0  0  0  0  0
    3.5724   -1.2375    0.0000 Cl  0  0  0  0  0  0  0  0  0  0  0  0
  2  1  1  6  0  0  0
  2  3  1  0  0  0  0
  3  4  4  0  0  0  0
  4  5  4  0  0  0  0
  5  6  4  0  0  0  0
  6  7  1  0  0  0  0
  7  8  4  0  0  0  0
  8  9  4  0  0  0  0
  9 10  4  0  0  0  0
 10 11  1  0  0  0  0
 10 12  4  0  0  0  0
 12 13  4  0  0  0  0
  7 13  4  0  0  0  0
  6 14  4  0  0  0  0
  3 14  4  0  0  0  0
 14 15  1  0  0  0  0
 15 16  1  0  0  0  0
 16 17  1  0  0  0  0
  2 17  1  0  0  0  0
 17 18  1  0  0  0  0
 18 19  2  0  0  0  0
 18 20  1  0  0  0  0
 20 21  4  0  0  0  0
 21 22  4  0  0  0  0
 22 23  4  0  0  0  0
 23 24  4  0  0  0  0
 24 25  1  0  0  0  0
 25 26  1  0  0  0  0
 25 27  1  0  0  0  0
 25 28  1  0  0  0  0
 24 29  4  0  0  0  0
 20 29  4  0  0  0  0
 29 30  1  0  0  0  0
M  END
>  <CdId>
15

>  <Mol Weight>
440.79

>  <Formula>
C18H13ClF4N6O

>  <Molecule ChEMBL ID>
CHEMBL4079239

>  <Molecule Name>
JNJ-54175446

>  <Molecule Max Phase>
2

>  <Molecular Weight>
440.79

>  <#RO5 Violations>
0

>  <AlogP>
3.63

>  <Compound Key>
14; JNJ-54175446

>  <Standard Type>
IC50

>  <Standard Relation>
'='

>  <Standard Value>
9600.0

>  <Standard Units>
nM

$$$$

  Mrv2114 03112311372D          

 28 31  0  0  0  0            999 V2000
    5.0013    3.7125    0.0000 N   0  0  0  0  0  0  0  0  0  0  0  0
    5.0013    2.8875    0.0000 C   0  0  0  0  0  0  0  0  0  0  0  0
    5.7158    2.4750    0.0000 C   0  0  0  0  0  0  0  0  0  0  0  0
    5.7158    1.6500    0.0000 C   0  0  0  0  0  0  0  0  0  0  0  0
    5.0013    1.2375    0.0000 C   0  0  0  0  0  0  0  0  0  0  0  0
    4.2868    1.6500    0.0000 C   0  0  0  0  0  0  0  0  0  0  0  0
    3.5724    1.2375    0.0000 C   0  0  0  0  0  0  0  0  0  0  0  0
    3.5724    0.4125    0.0000 C   0  0  0  0  0  0  0  0  0  0  0  0
    2.8579   -0.0000    0.0000 C   0  0  0  0  0  0  0  0  0  0  0  0
    2.1434    0.4125    0.0000 C   0  0  0  0  0  0  0  0  0  0  0  0
    1.4289   -0.0000    0.0000 S   0  0  0  0  0  0  0  0  0  0  0  0
    1.0164    0.7145    0.0000 O   0  0  0  0  0  0  0  0  0  0  0  0
    1.8414   -0.7145    0.0000 O   0  0  0  0  0  0  0  0  0  0  0  0
    0.7145   -0.4125    0.0000 N   0  0  0  0  0  0  0  0  0  0  0  0
    0.7145   -1.2375    0.0000 C   0  0  0  0  0  0  0  0  0  0  0  0
    1.3819   -1.7224    0.0000 C   0  0  0  0  0  0  0  0  0  0  0  0
    1.1270   -2.5070    0.0000 C   0  0  0  0  0  0  0  0  0  0  0  0
    0.3020   -2.5070    0.0000 N   0  0  0  0  0  0  0  0  0  0  0  0
    0.0470   -1.7224    0.0000 N   0  0  0  0  0  0  0  0  0  0  0  0
   -0.7376   -1.4675    0.0000 C   0  0  0  0  0  0  0  0  0  0  0  0
   -1.3507   -2.0195    0.0000 C   0  0  0  0  0  0  0  0  0  0  0  0
   -2.1353   -1.7646    0.0000 C   0  0  0  0  0  0  0  0  0  0  0  0
   -2.3068   -0.9576    0.0000 C   0  0  0  0  0  0  0  0  0  0  0  0
   -1.6937   -0.4056    0.0000 C   0  0  0  0  0  0  0  0  0  0  0  0
   -0.9091   -0.6605    0.0000 C   0  0  0  0  0  0  0  0  0  0  0  0
    2.1434    1.2375    0.0000 C   0  0  0  0  0  0  0  0  0  0  0  0
    2.8579    1.6500    0.0000 C   0  0  0  0  0  0  0  0  0  0  0  0
    4.2868    2.4750    0.0000 C   0  0  0  0  0  0  0  0  0  0  0  0
  1  2  1  0  0  0  0
  2  3  4  0  0  0  0
  3  4  4  0  0  0  0
  4  5  4  0  0  0  0
  5  6  4  0  0  0  0
  6  7  1  0  0  0  0
  7  8  4  0  0  0  0
  8  9  4  0  0  0  0
  9 10  4  0  0  0  0
 10 11  1  0  0  0  0
 11 12  2  0  0  0  0
 11 13  2  0  0  0  0
 11 14  1  0  0  0  0
 14 15  1  0  0  0  0
 15 16  4  0  0  0  0
 16 17  4  0  0  0  0
 17 18  4  0  0  0  0
 18 19  4  0  0  0  0
 15 19  4  0  0  0  0
 19 20  1  0  0  0  0
 20 21  4  0  0  0  0
 21 22  4  0  0  0  0
 22 23  4  0  0  0  0
 23 24  4  0  0  0  0
 24 25  4  0  0  0  0
 20 25  4  0  0  0  0
 10 26  4  0  0  0  0
 26 27  4  0  0  0  0
  7 27  4  0  0  0  0
  6 28  4  0  0  0  0
  2 28  4  0  0  0  0
M  END
>  <CdId>
16

>  <Mol Weight>
390.46

>  <Formula>
C21H18N4O2S

>  <Molecule ChEMBL ID>
CHEMBL333108

>  <Molecule Max Phase>
None

>  <Molecular Weight>
390.47

>  <#RO5 Violations>
0

>  <AlogP>
3.92

>  <Compound Key>
5

>  <Standard Type>
IC50

>  <Standard Relation>
'='

>  <Standard Value>
8000.0

>  <Standard Units>
nM

$$$$

  Mrv2114 03112311372D          

 22 23  0  0  0  0            999 V2000
    2.8579    0.0000    0.0000 C   0  0  0  0  0  0  0  0  0  0  0  0
    3.5724    0.4125    0.0000 C   0  0  0  0  0  0  0  0  0  0  0  0
    4.2868    0.0000    0.0000 C   0  0  0  0  0  0  0  0  0  0  0  0
    5.0013    0.4125    0.0000 C   0  0  0  0  0  0  0  0  0  0  0  0
    5.7158    0.0000    0.0000 N   0  0  0  0  0  0  0  0  0  0  0  0
    6.4302    0.4125    0.0000 C   0  0  0  0  0  0  0  0  0  0  0  0
    6.4302    1.2375    0.0000 N   0  0  0  0  0  0  0  0  0  0  0  0
    7.1447    1.6500    0.0000 C   0  0  0  0  0  0  0  0  0  0  0  0
    7.1447    2.4750    0.0000 N   0  0  0  0  0  0  0  0  0  0  0  0
    7.8592    1.2375    0.0000 N   0  0  0  0  0  0  0  0  0  0  0  0
    7.8592    0.4125    0.0000 C   0  0  0  0  0  0  0  0  0  0  0  0
    8.5737    0.0000    0.0000 C   0  0  0  0  0  0  0  0  0  0  0  0
    8.5737   -0.8250    0.0000 C   0  0  0  0  0  0  0  0  0  0  0  0
    7.8592   -1.2375    0.0000 C   0  0  0  0  0  0  0  0  0  0  0  0
    7.1447   -0.8250    0.0000 C   0  0  0  0  0  0  0  0  0  0  0  0
    6.4302   -1.2375    0.0000 C   0  0  0  0  0  0  0  0  0  0  0  0
    5.7158   -0.8250    0.0000 O   0  0  0  0  0  0  0  0  0  0  0  0
    6.4302   -2.0625    0.0000 N   0  0  0  0  0  0  0  0  0  0  0  0
    7.1447   -2.4750    0.0000 C   0  0  0  0  0  0  0  0  0  0  0  0
    7.8592   -2.0625    0.0000 C   0  0  0  0  0  0  0  0  0  0  0  0
    7.1447   -3.3000    0.0000 C   0  0  0  0  0  0  0  0  0  0  0  0
    7.1447    0.0000    0.0000 C   0  0  0  0  0  0  0  0  0  0  0  0
  1  2  1  0  0  0  0
  2  3  1  0  0  0  0
  3  4  1  0  0  0  0
  4  5  1  0  0  0  0
  5  6  1  0  0  0  0
  6  7  4  0  0  0  0
  7  8  4  0  0  0  0
  8  9  1  0  0  0  0
  8 10  4  0  0  0  0
 10 11  4  0  0  0  0
 11 12  4  0  0  0  0
 12 13  4  0  0  0  0
 13 14  4  0  0  0  0
 14 15  4  0  0  0  0
 15 16  1  0  0  0  0
 16 17  2  0  0  0  0
 16 18  1  0  0  0  0
 18 19  1  0  0  0  0
 19 20  1  0  0  0  0
 19 21  1  0  0  0  0
 15 22  4  0  0  0  0
  6 22  4  0  0  0  0
 11 22  4  0  0  0  0
M  END
>  <CdId>
17

>  <Mol Weight>
301.394

>  <Formula>
C16H23N5O

>  <Molecule ChEMBL ID>
CHEMBL4209289

>  <Molecule Max Phase>
None

>  <Molecular Weight>
301.39

>  <#RO5 Violations>
0

>  <AlogP>
2.56

>  <Compound Key>
43

>  <Standard Type>
IC50

>  <Standard Relation>
'>'

>  <Standard Value>
10000.0

>  <Standard Units>
nM

$$$$

  Mrv2114 03112311372D          

 33 36  0  0  0  0            999 V2000
    2.7512    0.7634    0.0000 C   0  0  0  0  0  0  0  0  0  0  0  0
    2.7512   -0.0616    0.0000 C   0  0  0  0  0  0  0  0  0  0  0  0
    3.4656   -0.4741    0.0000 C   0  0  0  0  0  0  0  0  0  0  0  0
    3.4656   -1.2991    0.0000 C   0  0  0  0  0  0  0  0  0  0  0  0
    2.7512   -1.7116    0.0000 C   0  0  0  0  0  0  0  0  0  0  0  0
    2.7512   -2.5366    0.0000 N   0  0  0  0  0  0  0  0  0  0  0  0
    2.0837   -3.0215    0.0000 N   0  0  0  0  0  0  0  0  0  0  0  0
    2.3387   -3.8062    0.0000 C   0  0  0  0  0  0  0  0  0  0  0  0
    1.8538   -4.4736    0.0000 C   0  0  0  0  0  0  0  0  0  0  0  0
    1.3688   -5.1410    0.0000 C   0  0  0  0  0  0  0  0  0  0  0  0
    1.1863   -3.9887    0.0000 C   0  0  0  0  0  0  0  0  0  0  0  0
    2.5212   -4.9585    0.0000 C   0  0  0  0  0  0  0  0  0  0  0  0
    3.1637   -3.8062    0.0000 C   0  0  0  0  0  0  0  0  0  0  0  0
    3.4186   -3.0215    0.0000 C   0  0  0  0  0  0  0  0  0  0  0  0
    4.2032   -2.7666    0.0000 N   0  0  0  0  0  0  0  0  0  0  0  0
    4.8163   -3.3186    0.0000 C   0  0  0  0  0  0  0  0  0  0  0  0
    4.6448   -4.1256    0.0000 O   0  0  0  0  0  0  0  0  0  0  0  0
    5.6010   -3.0637    0.0000 N   0  0  0  0  0  0  0  0  0  0  0  0
    6.2140   -3.6157    0.0000 C   0  0  0  0  0  0  0  0  0  0  0  0
    6.9987   -3.3608    0.0000 C   0  0  0  0  0  0  0  0  0  0  0  0
    7.6118   -3.9128    0.0000 C   0  0  0  0  0  0  0  0  0  0  0  0
    7.4402   -4.7198    0.0000 C   0  0  0  0  0  0  0  0  0  0  0  0
    8.0533   -5.2718    0.0000 C   0  0  0  0  0  0  0  0  0  0  0  0
    8.8603   -5.1003    0.0000 N   0  0  0  0  0  0  0  0  0  0  0  0
    9.2728   -5.8148    0.0000 N   0  0  0  0  0  0  0  0  0  0  0  0
    8.7208   -6.4279    0.0000 C   0  0  0  0  0  0  0  0  0  0  0  0
    8.8923   -7.2348    0.0000 S   0  0  0  0  0  0  0  0  0  0  0  0
    7.9671   -6.0923    0.0000 N   0  0  0  0  0  0  0  0  0  0  0  0
    7.2526   -6.5048    0.0000 C   0  0  0  0  0  0  0  0  0  0  0  0
    6.6556   -4.9747    0.0000 C   0  0  0  0  0  0  0  0  0  0  0  0
    6.0425   -4.4227    0.0000 C   0  0  0  0  0  0  0  0  0  0  0  0
    2.0367   -1.2991    0.0000 C   0  0  0  0  0  0  0  0  0  0  0  0
    2.0367   -0.4741    0.0000 C   0  0  0  0  0  0  0  0  0  0  0  0
  1  2  1  0  0  0  0
  2  3  4  0  0  0  0
  3  4  4  0  0  0  0
  4  5  4  0  0  0  0
  5  6  1  0  0  0  0
  6  7  4  0  0  0  0
  7  8  4  0  0  0  0
  8  9  1  0  0  0  0
  9 10  1  0  0  0  0
  9 11  1  0  0  0  0
  9 12  1  0  0  0  0
  8 13  4  0  0  0  0
 13 14  4  0  0  0  0
  6 14  4  0  0  0  0
 14 15  1  0  0  0  0
 15 16  1  0  0  0  0
 16 17  2  0  0  0  0
 16 18  1  0  0  0  0
 18 19  1  0  0  0  0
 19 20  4  0  0  0  0
 20 21  4  0  0  0  0
 21 22  4  0  0  0  0
 22 23  1  0  0  0  0
 23 24  4  0  0  0  0
 24 25  4  0  0  0  0
 25 26  4  0  0  0  0
 26 27  1  0  0  0  0
 26 28  4  0  0  0  0
 23 28  4  0  0  0  0
 28 29  1  0  0  0  0
 22 30  4  0  0  0  0
 30 31  4  0  0  0  0
 19 31  4  0  0  0  0
  5 32  4  0  0  0  0
 32 33  4  0  0  0  0
  2 33  4  0  0  0  0
M  END
>  <CdId>
18

>  <Mol Weight>
461.59

>  <Formula>
C24H27N7OS

>  <Molecule ChEMBL ID>
CHEMBL2425148

>  <Molecule Max Phase>
None

>  <Molecular Weight>
461.6

>  <#RO5 Violations>
1

>  <AlogP>
5.21

>  <Compound Key>
19

>  <Standard Type>
IC50

>  <Standard Relation>
'>'

>  <Standard Value>
10000.0

>  <Standard Units>
nM

$$$$

  Mrv2114 03112311372D          

 20 20  0  0  0  0            999 V2000
    2.8579   -6.6000    0.0000 C   0  0  0  0  0  0  0  0  0  0  0  0
    3.5724   -6.1875    0.0000 C   0  0  0  0  0  0  0  0  0  0  0  0
    4.2868   -6.6000    0.0000 C   0  0  0  0  0  0  0  0  0  0  0  0
    5.0013   -6.1875    0.0000 C   0  0  0  0  0  0  0  0  0  0  0  0
    5.7158   -6.6000    0.0000 C   0  0  0  0  0  0  0  0  0  0  0  0
    6.4302   -6.1875    0.0000 C   0  0  0  0  0  0  0  0  0  0  0  0
    7.1447   -6.6000    0.0000 C   0  0  0  0  0  0  0  0  0  0  0  0
    7.8592   -6.1875    0.0000 C   0  0  0  0  0  0  0  0  0  0  0  0
    7.8592   -5.3625    0.0000 O   0  0  0  0  0  0  0  0  0  0  0  0
    8.5737   -6.6000    0.0000 C   0  0  0  0  0  0  0  0  0  0  0  0
    9.2881   -6.1875    0.0000 C   0  0  0  0  0  0  0  0  0  0  0  0
   10.0026   -6.6000    0.0000 C   0  0  0  0  0  0  0  0  0  0  0  0
   10.7171   -6.1875    0.0000 C   0  0  0  0  0  0  0  0  0  0  0  0
   11.4315   -6.6000    0.0000 C   0  0  0  0  0  0  0  0  0  0  0  0
   11.4315   -7.4250    0.0000 C   0  0  0  0  0  0  0  0  0  0  0  0
   12.1460   -7.8375    0.0000 O   0  0  0  0  0  0  0  0  0  0  0  0
   10.7171   -7.8375    0.0000 C   0  0  0  0  0  0  0  0  0  0  0  0
   10.7171   -8.6625    0.0000 O   0  0  0  0  0  0  0  0  0  0  0  0
   10.0026   -9.0750    0.0000 C   0  0  0  0  0  0  0  0  0  0  0  0
   10.0026   -7.4250    0.0000 C   0  0  0  0  0  0  0  0  0  0  0  0
  1  2  1  0  0  0  0
  2  3  1  0  0  0  0
  3  4  1  0  0  0  0
  4  5  1  0  0  0  0
  5  6  1  0  0  0  0
  6  7  1  0  0  0  0
  7  8  1  0  0  0  0
  8  9  2  0  0  0  0
  8 10  1  0  0  0  0
 10 11  1  0  0  0  0
 11 12  1  0  0  0  0
 12 13  4  0  0  0  0
 13 14  4  0  0  0  0
 14 15  4  0  0  0  0
 15 16  1  0  0  0  0
 15 17  4  0  0  0  0
 17 18  1  0  0  0  0
 18 19  1  0  0  0  0
 17 20  4  0  0  0  0
 12 20  4  0  0  0  0
M  END
>  <CdId>
19

>  <Mol Weight>
278.392

>  <Formula>
C17H26O3

>  <Molecule ChEMBL ID>
CHEMBL2071440

>  <Molecule Max Phase>
None

>  <Molecular Weight>
278.39

>  <#RO5 Violations>
0

>  <AlogP>
4.26

>  <Compound Key>
6-Paradol

>  <Standard Type>
IC50

>  <Standard Relation>
'='

>  <Standard Value>
5100.0

>  <Standard Units>
nM

$$$$

  Mrv2114 03112311372D          

 43 48  0  0  1  0            999 V2000
   -1.4289    0.8250    0.0000 C   0  0  0  0  0  0  0  0  0  0  0  0
   -0.7145    1.2375    0.0000 C   0  0  0  0  0  0  0  0  0  0  0  0
   -0.7145    2.0625    0.0000 C   0  0  0  0  0  0  0  0  0  0  0  0
   -1.4289    2.4750    0.0000 N   0  0  0  0  0  0  0  0  0  0  0  0
   -1.4289    3.3000    0.0000 C   0  0  0  0  0  0  0  0  0  0  0  0
   -2.1434    3.7125    0.0000 O   0  0  0  0  0  0  0  0  0  0  0  0
   -2.1434    4.5375    0.0000 C   0  0  0  0  0  0  0  0  0  0  0  0
   -2.8579    4.9500    0.0000 C   0  0  0  0  0  0  0  0  0  0  0  0
   -2.8579    5.7750    0.0000 C   0  0  0  0  0  0  0  0  0  0  0  0
   -2.1434    6.1875    0.0000 C   0  0  0  0  0  0  0  0  0  0  0  0
   -2.1434    7.0125    0.0000 C   0  0  0  0  0  0  0  0  0  0  0  0
   -1.4289    7.4250    0.0000 O   0  0  0  0  0  0  0  0  0  0  0  0
   -2.8579    7.4250    0.0000 O   0  0  0  0  0  0  0  0  0  0  0  0
   -1.4289    5.7750    0.0000 C   0  0  0  0  0  0  0  0  0  0  0  0
   -1.4289    4.9500    0.0000 C   0  0  0  0  0  0  0  0  0  0  0  0
   -0.7145    3.7125    0.0000 C   0  0  0  0  0  0  0  0  0  0  0  0
   -0.0000    3.3000    0.0000 C   0  0  0  0  0  0  0  0  0  0  0  0
    0.0000    2.4750    0.0000 C   0  0  0  0  0  0  0  0  0  0  0  0
    0.7145    2.0625    0.0000 C   0  0  0  0  0  0  0  0  0  0  0  0
    0.7145    1.2375    0.0000 N   0  0  0  0  0  0  0  0  0  0  0  0
    1.4289    0.8250    0.0000 C   0  0  0  0  0  0  0  0  0  0  0  0
    1.4289   -0.0000    0.0000 C   0  0  0  0  0  0  0  0  0  0  0  0
    0.7145   -0.4125    0.0000 C   0  0  0  0  0  0  0  0  0  0  0  0
    0.7145   -1.2375    0.0000 N   0  0  0  0  0  0  0  0  0  0  0  0
    1.3819   -1.7224    0.0000 C   0  0  0  0  0  0  0  0  0  0  0  0
    2.1665   -1.4675    0.0000 O   0  0  0  0  0  0  0  0  0  0  0  0
    1.1270   -2.5070    0.0000 N   0  0  0  0  0  0  0  0  0  0  0  0
    1.6119   -3.1745    0.0000 C   0  0  0  0  0  0  0  0  0  0  0  0
    2.4324   -3.0882    0.0000 C   0  0  0  0  0  0  0  0  0  0  0  0
    2.9173   -3.7557    0.0000 C   0  0  0  0  0  0  0  0  0  0  0  0
    2.5817   -4.5094    0.0000 O   0  0  0  0  0  0  0  0  0  0  0  0
    1.7613   -4.5956    0.0000 C   0  0  0  0  0  0  0  0  0  0  0  0
    1.2763   -3.9282    0.0000 C   0  0  0  0  0  0  0  0  0  0  0  0
    0.3020   -2.5070    0.0000 C   0  0  0  0  0  0  0  0  0  0  0  0
    0.0470   -1.7224    0.0000 C   0  0  1  0  0  0  0  0  0  0  0  0
   -0.7376   -1.4675    0.0000 C   0  0  0  0  0  0  0  0  0  0  0  0
   -1.3507   -2.0195    0.0000 C   0  0  0  0  0  0  0  0  0  0  0  0
   -2.1353   -1.7646    0.0000 C   0  0  0  0  0  0  0  0  0  0  0  0
   -2.3068   -0.9576    0.0000 C   0  0  0  0  0  0  0  0  0  0  0  0
   -1.6937   -0.4056    0.0000 C   0  0  0  0  0  0  0  0  0  0  0  0
   -0.9091   -0.6605    0.0000 C   0  0  0  0  0  0  0  0  0  0  0  0
    0.0000   -0.0000    0.0000 C   0  0  0  0  0  0  0  0  0  0  0  0
    0.0000    0.8250    0.0000 C   0  0  0  0  0  0  0  0  0  0  0  0
  1  2  1  0  0  0  0
  2  3  1  0  0  0  0
  3  4  4  0  0  0  0
  4  5  4  0  0  0  0
  5  6  1  0  0  0  0
  6  7  1  0  0  0  0
  7  8  4  0  0  0  0
  8  9  4  0  0  0  0
  9 10  4  0  0  0  0
 10 11  1  0  0  0  0
 11 12  2  0  0  0  0
 11 13  1  0  0  0  0
 10 14  4  0  0  0  0
 14 15  4  0  0  0  0
  7 15  4  0  0  0  0
  5 16  4  0  0  0  0
 16 17  4  0  0  0  0
 17 18  4  0  0  0  0
  3 18  4  0  0  0  0
 18 19  1  0  0  0  0
 19 20  1  0  0  0  0
 20 21  1  0  0  0  0
 21 22  1  0  0  0  0
 22 23  1  0  0  0  0
 23 24  1  0  0  0  0
 24 25  1  0  0  0  0
 25 26  2  0  0  0  0
 25 27  1  0  0  0  0
 27 28  1  0  0  0  0
 28 29  1  0  0  0  0
 29 30  1  0  0  0  0
 30 31  1  0  0  0  0
 31 32  1  0  0  0  0
 32 33  1  0  0  0  0
 28 33  1  0  0  0  0
 27 34  1  0  0  0  0
 35 34  1  0  0  0  0
 35 24  1  0  0  0  0
 35 36  1  1  0  0  0
 36 37  4  0  0  0  0
 37 38  4  0  0  0  0
 38 39  4  0  0  0  0
 39 40  4  0  0  0  0
 40 41  4  0  0  0  0
 36 41  4  0  0  0  0
 23 42  1  0  0  0  0
 42 43  1  0  0  0  0
 20 43  1  0  0  0  0
M  END
>  <CdId>
20

>  <Mol Weight>
584.717

>  <Formula>
C34H40N4O5

>  <Molecule ChEMBL ID>
CHEMBL2435856

>  <Molecule Max Phase>
None

>  <Molecular Weight>
584.72

>  <#RO5 Violations>
2

>  <AlogP>
5.76

>  <Compound Key>
6h

>  <Standard Type>
IC50

>  <Standard Relation>
'>'

>  <Standard Value>
73000.0

>  <Standard Units>
nM

$$$$

  Mrv2114 03112311372D          

 34 38  0  0  0  0            999 V2000
    0.2427   -3.3913    0.0000 C   0  0  0  0  0  0  0  0  0  0  0  0
    0.4976   -2.6067    0.0000 N   0  0  0  0  0  0  0  0  0  0  0  0
    0.0127   -1.9393    0.0000 C   0  0  0  0  0  0  0  0  0  0  0  0
    0.4976   -1.2718    0.0000 C   0  0  0  0  0  0  0  0  0  0  0  0
    0.2427   -0.4872    0.0000 C   0  0  0  0  0  0  0  0  0  0  0  0
   -0.5643   -0.3157    0.0000 C   0  0  0  0  0  0  0  0  0  0  0  0
   -0.8192    0.4689    0.0000 C   0  0  0  0  0  0  0  0  0  0  0  0
   -0.2672    1.0820    0.0000 C   0  0  0  0  0  0  0  0  0  0  0  0
    0.5398    0.9105    0.0000 C   0  0  0  0  0  0  0  0  0  0  0  0
    0.7947    0.1259    0.0000 C   0  0  0  0  0  0  0  0  0  0  0  0
    1.6017   -0.0457    0.0000 F   0  0  0  0  0  0  0  0  0  0  0  0
    0.9523    1.6250    0.0000 C   0  0  0  0  0  0  0  0  0  0  0  0
    0.4002    2.2381    0.0000 C   0  0  0  0  0  0  0  0  0  0  0  0
   -0.3534    1.9025    0.0000 N   0  0  0  0  0  0  0  0  0  0  0  0
   -1.0679    2.3150    0.0000 C   0  0  0  0  0  0  0  0  0  0  0  0
   -1.7824    1.9025    0.0000 O   0  0  0  0  0  0  0  0  0  0  0  0
   -1.0679    3.1400    0.0000 C   0  0  0  0  0  0  0  0  0  0  0  0
   -1.7824    3.5525    0.0000 C   0  0  0  0  0  0  0  0  0  0  0  0
   -2.4969    3.1400    0.0000 C   0  0  0  0  0  0  0  0  0  0  0  0
   -3.2113    3.5525    0.0000 C   0  0  0  0  0  0  0  0  0  0  0  0
   -3.2113    4.3775    0.0000 C   0  0  0  0  0  0  0  0  0  0  0  0
   -2.4969    4.7900    0.0000 C   0  0  0  0  0  0  0  0  0  0  0  0
   -2.4969    5.6150    0.0000 C   0  0  0  0  0  0  0  0  0  0  0  0
   -2.4969    6.4400    0.0000 F   0  0  0  0  0  0  0  0  0  0  0  0
   -3.3219    5.6150    0.0000 F   0  0  0  0  0  0  0  0  0  0  0  0
   -1.6719    5.6150    0.0000 F   0  0  0  0  0  0  0  0  0  0  0  0
   -1.7824    4.3775    0.0000 N   0  0  0  0  0  0  0  0  0  0  0  0
    1.2822   -1.5268    0.0000 C   0  0  0  0  0  0  0  0  0  0  0  0
    1.9967   -1.1143    0.0000 C   0  0  0  0  0  0  0  0  0  0  0  0
    1.9967   -0.2893    0.0000 N   0  0  0  0  0  0  0  0  0  0  0  0
    2.7112   -1.5268    0.0000 N   0  0  0  0  0  0  0  0  0  0  0  0
    2.7112   -2.3518    0.0000 C   0  0  0  0  0  0  0  0  0  0  0  0
    1.9967   -2.7643    0.0000 N   0  0  0  0  0  0  0  0  0  0  0  0
    1.2822   -2.3518    0.0000 C   0  0  0  0  0  0  0  0  0  0  0  0
  1  2  1  0  0  0  0
  2  3  4  0  0  0  0
  3  4  4  0  0  0  0
  4  5  1  0  0  0  0
  5  6  4  0  0  0  0
  6  7  4  0  0  0  0
  7  8  4  0  0  0  0
  8  9  4  0  0  0  0
  9 10  4  0  0  0  0
  5 10  4  0  0  0  0
 10 11  1  0  0  0  0
  9 12  1  0  0  0  0
 12 13  1  0  0  0  0
 13 14  1  0  0  0  0
  8 14  1  0  0  0  0
 14 15  1  0  0  0  0
 15 16  2  0  0  0  0
 15 17  1  0  0  0  0
 17 18  1  0  0  0  0
 18 19  4  0  0  0  0
 19 20  4  0  0  0  0
 20 21  4  0  0  0  0
 21 22  4  0  0  0  0
 22 23  1  0  0  0  0
 23 24  1  0  0  0  0
 23 25  1  0  0  0  0
 23 26  1  0  0  0  0
 22 27  4  0  0  0  0
 18 27  4  0  0  0  0
  4 28  4  0  0  0  0
 28 29  4  0  0  0  0
 29 30  1  0  0  0  0
 29 31  4  0  0  0  0
 31 32  4  0  0  0  0
 32 33  4  0  0  0  0
 33 34  4  0  0  0  0
 28 34  4  0  0  0  0
  2 34  4  0  0  0  0
M  END
>  <CdId>
21

>  <Mol Weight>
470.432

>  <Formula>
C23H18F4N6O

>  <Molecule ChEMBL ID>
CHEMBL2441342

>  <Molecule Max Phase>
None

>  <Molecular Weight>
470.43

>  <#RO5 Violations>
0

>  <AlogP>
3.9

>  <Compound Key>
8

>  <Standard Type>
IC50

>  <Standard Relation>
'='

>  <Standard Value>
5830.0

>  <Standard Units>
nM

$$$$

  Mrv2114 03112311372D          

 34 37  0  0  1  0            999 V2000
   -0.9355   -1.0164    0.0000 C   0  0  0  0  0  0  0  0  0  0  0  0
   -1.3480   -0.3020    0.0000 C   0  0  1  0  0  0  0  0  0  0  0  0
   -0.9355    0.4125    0.0000 O   0  0  0  0  0  0  0  0  0  0  0  0
   -0.1105    0.4125    0.0000 C   0  0  1  0  0  0  0  0  0  0  0  0
    0.3020    1.1270    0.0000 C   0  0  0  0  0  0  0  0  0  0  0  0
    1.1270    1.1270    0.0000 C   0  0  0  0  0  0  0  0  0  0  0  0
    1.5395    0.4125    0.0000 C   0  0  1  0  0  0  0  0  0  0  0  0
    1.9520    1.1270    0.0000 C   0  0  0  0  0  0  0  0  0  0  0  0
    2.7770    1.1270    0.0000 C   0  0  0  0  0  0  0  0  0  0  0  0
    3.1895    0.4125    0.0000 C   0  0  0  0  0  0  0  0  0  0  0  0
    3.8215    0.9428    0.0000 F   0  0  0  0  0  0  0  0  0  0  0  0
    3.8215   -0.1178    0.0000 F   0  0  0  0  0  0  0  0  0  0  0  0
    2.7770   -0.3020    0.0000 C   0  0  0  0  0  0  0  0  0  0  0  0
    1.9520   -0.3020    0.0000 O   0  0  0  0  0  0  0  0  0  0  0  0
    1.1270   -0.3020    0.0000 C   0  0  0  0  0  0  0  0  0  0  0  0
    0.3020   -0.3020    0.0000 C   0  0  0  0  0  0  0  0  0  0  0  0
   -2.1730   -0.3020    0.0000 C   0  0  0  0  0  0  0  0  0  0  0  0
   -2.6580   -0.9694    0.0000 N   0  0  0  0  0  0  0  0  0  0  0  0
   -3.4426   -0.7145    0.0000 C   0  0  0  0  0  0  0  0  0  0  0  0
   -4.1100   -1.1994    0.0000 C   0  0  0  0  0  0  0  0  0  0  0  0
   -4.0238   -2.0199    0.0000 C   0  0  0  0  0  0  0  0  0  0  0  0
   -4.6912   -2.5048    0.0000 C   0  0  0  0  0  0  0  0  0  0  0  0
   -4.6050   -3.3253    0.0000 F   0  0  0  0  0  0  0  0  0  0  0  0
   -5.4449   -2.1692    0.0000 C   0  0  0  0  0  0  0  0  0  0  0  0
   -6.1123   -2.6542    0.0000 C   0  0  0  0  0  0  0  0  0  0  0  0
   -6.0261   -3.4746    0.0000 S   0  0  0  0  0  0  0  0  0  0  0  0
   -5.9399   -4.2951    0.0000 C   0  0  0  0  0  0  0  0  0  0  0  0
   -6.8466   -3.5609    0.0000 O   0  0  0  0  0  0  0  0  0  0  0  0
   -5.2056   -3.3884    0.0000 O   0  0  0  0  0  0  0  0  0  0  0  0
   -5.5311   -1.3488    0.0000 C   0  0  0  0  0  0  0  0  0  0  0  0
   -6.2848   -1.0132    0.0000 F   0  0  0  0  0  0  0  0  0  0  0  0
   -4.8637   -0.8638    0.0000 C   0  0  0  0  0  0  0  0  0  0  0  0
   -3.4426    0.1105    0.0000 N   0  0  0  0  0  0  0  0  0  0  0  0
   -2.6580    0.3655    0.0000 O   0  0  0  0  0  0  0  0  0  0  0  0
  2  1  1  6  0  0  0
  2  3  1  0  0  0  0
  4  3  1  1  0  0  0
  4  5  1  0  0  0  0
  5  6  1  0  0  0  0
  7  6  1  0  0  0  0
  7  8  1  0  0  0  0
  8  9  1  0  0  0  0
  9 10  1  0  0  0  0
 10 11  1  0  0  0  0
 10 12  1  0  0  0  0
 10 13  1  0  0  0  0
 13 14  1  0  0  0  0
  7 14  1  1  0  0  0
  7 15  1  0  0  0  0
 15 16  1  0  0  0  0
  4 16  1  0  0  0  0
  2 17  1  0  0  0  0
 17 18  4  0  0  0  0
 18 19  4  0  0  0  0
 19 20  1  0  0  0  0
 20 21  4  0  0  0  0
 21 22  4  0  0  0  0
 22 23  1  0  0  0  0
 22 24  4  0  0  0  0
 24 25  1  0  0  0  0
 25 26  1  0  0  0  0
 26 27  1  0  0  0  0
 26 28  2  0  0  0  0
 26 29  2  0  0  0  0
 24 30  4  0  0  0  0
 30 31  1  0  0  0  0
 30 32  4  0  0  0  0
 20 32  4  0  0  0  0
 19 33  4  0  0  0  0
 33 34  4  0  0  0  0
 17 34  4  0  0  0  0
M  END
>  <CdId>
22

>  <Mol Weight>
506.51

>  <Formula>
C22H26F4N2O5S

>  <Molecule ChEMBL ID>
CHEMBL4548931

>  <Molecule Max Phase>
None

>  <Molecular Weight>
506.52

>  <#RO5 Violations>
1

>  <AlogP>
4.76

>  <Compound Key>
24

>  <Standard Type>
IC50

>  <Standard Relation>
'>'

>  <Standard Value>
50000.0

>  <Standard Units>
nM

$$$$

  Mrv2114 03112311372D          

 31 34  0  0  0  0            999 V2000
    0.0768   -2.3215    0.0000 C   0  0  0  0  0  0  0  0  0  0  0  0
    0.8838   -2.1500    0.0000 C   0  0  0  0  0  0  0  0  0  0  0  0
    1.1387   -1.3654    0.0000 N   0  0  0  0  0  0  0  0  0  0  0  0
    0.6538   -0.6979    0.0000 C   0  0  0  0  0  0  0  0  0  0  0  0
    1.1387   -0.0305    0.0000 N   0  0  0  0  0  0  0  0  0  0  0  0
    1.9233   -0.2854    0.0000 C   0  0  0  0  0  0  0  0  0  0  0  0
    2.6378    0.1271    0.0000 C   0  0  0  0  0  0  0  0  0  0  0  0
    2.6378    0.9521    0.0000 C   0  0  0  0  0  0  0  0  0  0  0  0
    1.9233    1.3646    0.0000 C   0  0  0  0  0  0  0  0  0  0  0  0
    1.9233    2.1896    0.0000 C   0  0  0  0  0  0  0  0  0  0  0  0
    2.6378    2.6021    0.0000 C   0  0  0  0  0  0  0  0  0  0  0  0
    2.6378    3.4271    0.0000 F   0  0  0  0  0  0  0  0  0  0  0  0
    3.3523    2.1896    0.0000 C   0  0  0  0  0  0  0  0  0  0  0  0
    4.0668    2.6021    0.0000 C   0  0  0  0  0  0  0  0  0  0  0  0
    4.0668    3.4271    0.0000 C   0  0  0  0  0  0  0  0  0  0  0  0
    4.7812    3.8396    0.0000 C   0  0  0  0  0  0  0  0  0  0  0  0
    5.4957    3.4271    0.0000 C   0  0  0  0  0  0  0  0  0  0  0  0
    6.2102    3.8396    0.0000 S   0  0  0  0  0  0  0  0  0  0  0  0
    6.6227    3.1251    0.0000 O   0  0  0  0  0  0  0  0  0  0  0  0
    5.7977    4.5540    0.0000 O   0  0  0  0  0  0  0  0  0  0  0  0
    6.9246    4.2521    0.0000 C   0  0  0  0  0  0  0  0  0  0  0  0
    6.9246    5.0771    0.0000 C   0  0  0  0  0  0  0  0  0  0  0  0
    5.4957    2.6021    0.0000 C   0  0  0  0  0  0  0  0  0  0  0  0
    4.7812    2.1896    0.0000 C   0  0  0  0  0  0  0  0  0  0  0  0
    4.7812    1.3646    0.0000 O   0  0  0  0  0  0  0  0  0  0  0  0
    4.0668    0.9521    0.0000 C   0  0  0  0  0  0  0  0  0  0  0  0
    3.3523    1.3646    0.0000 C   0  0  0  0  0  0  0  0  0  0  0  0
    3.3523   -0.2854    0.0000 C   0  0  0  0  0  0  0  0  0  0  0  0
    3.3523   -1.1104    0.0000 N   0  0  0  0  0  0  0  0  0  0  0  0
    2.6378   -1.5229    0.0000 N   0  0  0  0  0  0  0  0  0  0  0  0
    1.9233   -1.1104    0.0000 C   0  0  0  0  0  0  0  0  0  0  0  0
  1  2  1  0  0  0  0
  2  3  1  0  0  0  0
  3  4  4  0  0  0  0
  4  5  4  0  0  0  0
  5  6  4  0  0  0  0
  6  7  4  0  0  0  0
  7  8  1  0  0  0  0
  8  9  4  0  0  0  0
  9 10  4  0  0  0  0
 10 11  4  0  0  0  0
 11 12  1  0  0  0  0
 11 13  4  0  0  0  0
 13 14  1  0  0  0  0
 14 15  4  0  0  0  0
 15 16  4  0  0  0  0
 16 17  4  0  0  0  0
 17 18  1  0  0  0  0
 18 19  2  0  0  0  0
 18 20  2  0  0  0  0
 18 21  1  0  0  0  0
 21 22  1  0  0  0  0
 17 23  4  0  0  0  0
 23 24  4  0  0  0  0
 14 24  4  0  0  0  0
 24 25  1  0  0  0  0
 25 26  1  0  0  0  0
 13 27  4  0  0  0  0
  8 27  4  0  0  0  0
  7 28  4  0  0  0  0
 28 29  4  0  0  0  0
 29 30  4  0  0  0  0
 30 31  4  0  0  0  0
  6 31  4  0  0  0  0
  3 31  4  0  0  0  0
M  END
>  <CdId>
23

>  <Mol Weight>
440.49

>  <Formula>
C22H21FN4O3S

>  <Molecule ChEMBL ID>
CHEMBL3647536

>  <Molecule Name>
DARIGABAT

>  <Molecule Max Phase>
2

>  <Molecular Weight>
440.5

>  <#RO5 Violations>
0

>  <AlogP>
4.12

>  <Compound Key>
34; PF-06372865

>  <Standard Type>
IC50

>  <Standard Relation>
'='

>  <Standard Value>
52000.0

>  <Standard Units>
nM

$$$$

  Mrv2114 03112311372D          

 26 28  0  0  0  0            999 V2000
    0.0000   -2.4750    0.0000 O   0  0  0  0  0  0  0  0  0  0  0  0
    0.0000   -1.6500    0.0000 C   0  0  0  0  0  0  0  0  0  0  0  0
   -0.7145   -1.2375    0.0000 C   0  0  0  0  0  0  0  0  0  0  0  0
   -1.4289   -1.6500    0.0000 C   0  0  0  0  0  0  0  0  0  0  0  0
   -1.4289   -2.4750    0.0000 C   0  0  0  0  0  0  0  0  0  0  0  0
   -0.7615   -2.9599    0.0000 N   0  0  0  0  0  0  0  0  0  0  0  0
   -1.0164   -3.7445    0.0000 C   0  0  0  0  0  0  0  0  0  0  0  0
   -0.5315   -4.4120    0.0000 C   0  0  0  0  0  0  0  0  0  0  0  0
    0.2890   -4.3257    0.0000 C   0  0  0  0  0  0  0  0  0  0  0  0
    0.7739   -4.9932    0.0000 C   0  0  0  0  0  0  0  0  0  0  0  0
    0.4383   -5.7469    0.0000 C   0  0  0  0  0  0  0  0  0  0  0  0
    0.9232   -6.4143    0.0000 O   0  0  0  0  0  0  0  0  0  0  0  0
   -0.3822   -5.8331    0.0000 C   0  0  0  0  0  0  0  0  0  0  0  0
   -0.8671   -5.1657    0.0000 N   0  0  0  0  0  0  0  0  0  0  0  0
   -1.8414   -3.7445    0.0000 N   0  0  0  0  0  0  0  0  0  0  0  0
   -2.0964   -2.9599    0.0000 O   0  0  0  0  0  0  0  0  0  0  0  0
    0.7145   -1.2375    0.0000 N   0  0  0  0  0  0  0  0  0  0  0  0
    0.7145   -0.4125    0.0000 C   0  0  0  0  0  0  0  0  0  0  0  0
    0.0000    0.0000    0.0000 C   0  0  0  0  0  0  0  0  0  0  0  0
    0.0000    0.8250    0.0000 C   0  0  0  0  0  0  0  0  0  0  0  0
    0.7145    1.2375    0.0000 C   0  0  0  0  0  0  0  0  0  0  0  0
    1.4289    0.8250    0.0000 C   0  0  0  0  0  0  0  0  0  0  0  0
    1.4289    0.0000    0.0000 C   0  0  0  0  0  0  0  0  0  0  0  0
    2.1434   -0.4125    0.0000 C   0  0  0  0  0  0  0  0  0  0  0  0
    2.1434   -1.2375    0.0000 O   0  0  0  0  0  0  0  0  0  0  0  0
    2.8579    0.0000    0.0000 O   0  0  0  0  0  0  0  0  0  0  0  0
  1  2  2  0  0  0  0
  2  3  1  0  0  0  0
  3  4  1  0  0  0  0
  4  5  1  0  0  0  0
  5  6  4  0  0  0  0
  6  7  4  0  0  0  0
  7  8  1  0  0  0  0
  8  9  4  0  0  0  0
  9 10  4  0  0  0  0
 10 11  4  0  0  0  0
 11 12  1  0  0  0  0
 11 13  4  0  0  0  0
 13 14  4  0  0  0  0
  8 14  4  0  0  0  0
  7 15  4  0  0  0  0
 15 16  4  0  0  0  0
  5 16  4  0  0  0  0
  2 17  1  0  0  0  0
 17 18  1  0  0  0  0
 18 19  4  0  0  0  0
 19 20  4  0  0  0  0
 20 21  4  0  0  0  0
 21 22  4  0  0  0  0
 22 23  4  0  0  0  0
 18 23  4  0  0  0  0
 23 24  1  0  0  0  0
 24 25  2  0  0  0  0
 24 26  1  0  0  0  0
M  END
>  <CdId>
24

>  <Mol Weight>
354.322

>  <Formula>
C17H14N4O5

>  <Molecule ChEMBL ID>
CHEMBL237248

>  <Molecule Max Phase>
None

>  <Molecular Weight>
354.32

>  <#RO5 Violations>
0

>  <AlogP>
2.11

>  <Compound Key>
2o

>  <Standard Type>
IC50

>  <Standard Relation>
'>'

>  <Standard Value>
100000.0

>  <Standard Units>
nM

$$$$

  Mrv2114 03112311372D          

 27 29  0  0  0  0            999 V2000
    0.0000   -2.4750    0.0000 O   0  0  0  0  0  0  0  0  0  0  0  0
    0.0000   -1.6500    0.0000 C   0  0  0  0  0  0  0  0  0  0  0  0
   -0.7145   -1.2375    0.0000 C   0  0  0  0  0  0  0  0  0  0  0  0
   -1.4289   -1.6500    0.0000 C   0  0  0  0  0  0  0  0  0  0  0  0
   -1.4289   -2.4750    0.0000 C   0  0  0  0  0  0  0  0  0  0  0  0
   -0.7615   -2.9599    0.0000 C   0  0  0  0  0  0  0  0  0  0  0  0
   -1.0164   -3.7445    0.0000 N   0  0  0  0  0  0  0  0  0  0  0  0
   -1.8414   -3.7445    0.0000 C   0  0  0  0  0  0  0  0  0  0  0  0
   -2.3264   -4.4120    0.0000 C   0  0  0  0  0  0  0  0  0  0  0  0
   -1.9908   -5.1657    0.0000 C   0  0  0  0  0  0  0  0  0  0  0  0
   -2.4757   -5.8331    0.0000 C   0  0  0  0  0  0  0  0  0  0  0  0
   -3.2962   -5.7469    0.0000 C   0  0  0  0  0  0  0  0  0  0  0  0
   -3.7811   -6.4143    0.0000 O   0  0  0  0  0  0  0  0  0  0  0  0
   -3.6318   -4.9932    0.0000 C   0  0  0  0  0  0  0  0  0  0  0  0
   -3.1468   -4.3257    0.0000 C   0  0  0  0  0  0  0  0  0  0  0  0
   -3.4824   -3.5721    0.0000 Cl  0  0  0  0  0  0  0  0  0  0  0  0
   -2.0964   -2.9599    0.0000 S   0  0  0  0  0  0  0  0  0  0  0  0
    0.7145   -1.2375    0.0000 N   0  0  0  0  0  0  0  0  0  0  0  0
    0.7145   -0.4125    0.0000 C   0  0  0  0  0  0  0  0  0  0  0  0
    0.0000    0.0000    0.0000 C   0  0  0  0  0  0  0  0  0  0  0  0
    0.0000    0.8250    0.0000 C   0  0  0  0  0  0  0  0  0  0  0  0
    0.7145    1.2375    0.0000 C   0  0  0  0  0  0  0  0  0  0  0  0
    1.4289    0.8250    0.0000 C   0  0  0  0  0  0  0  0  0  0  0  0
    1.4289    0.0000    0.0000 C   0  0  0  0  0  0  0  0  0  0  0  0
    2.1434   -0.4125    0.0000 C   0  0  0  0  0  0  0  0  0  0  0  0
    2.1434   -1.2375    0.0000 O   0  0  0  0  0  0  0  0  0  0  0  0
    2.8579    0.0000    0.0000 O   0  0  0  0  0  0  0  0  0  0  0  0
  1  2  2  0  0  0  0
  2  3  1  0  0  0  0
  3  4  1  0  0  0  0
  4  5  1  0  0  0  0
  5  6  4  0  0  0  0
  6  7  4  0  0  0  0
  7  8  4  0  0  0  0
  8  9  1  0  0  0  0
  9 10  4  0  0  0  0
 10 11  4  0  0  0  0
 11 12  4  0  0  0  0
 12 13  1  0  0  0  0
 12 14  4  0  0  0  0
 14 15  4  0  0  0  0
  9 15  4  0  0  0  0
 15 16  1  0  0  0  0
  8 17  4  0  0  0  0
  5 17  4  0  0  0  0
  2 18  1  0  0  0  0
 18 19  1  0  0  0  0
 19 20  4  0  0  0  0
 20 21  4  0  0  0  0
 21 22  4  0  0  0  0
 22 23  4  0  0  0  0
 23 24  4  0  0  0  0
 19 24  4  0  0  0  0
 24 25  1  0  0  0  0
 25 26  2  0  0  0  0
 25 27  1  0  0  0  0
M  END
>  <CdId>
25

>  <Mol Weight>
402.85

>  <Formula>
C19H15ClN2O4S

>  <Molecule ChEMBL ID>
CHEMBL236162

>  <Molecule Max Phase>
None

>  <Molecular Weight>
402.86

>  <#RO5 Violations>
0

>  <AlogP>
4.44

>  <Compound Key>
2g

>  <Standard Type>
IC50

>  <Standard Relation>
'='

>  <Standard Value>
1200.0

>  <Standard Units>
nM

$$$$

  Mrv2114 03112311372D          

 28 30  0  0  0  0            999 V2000
    1.1296   -6.3063    0.0000 C   0  0  0  0  0  0  0  0  0  0  0  0
    1.5421   -5.5919    0.0000 C   0  0  0  0  0  0  0  0  0  0  0  0
    1.1296   -4.8774    0.0000 C   0  0  0  0  0  0  0  0  0  0  0  0
    1.5421   -4.1629    0.0000 C   0  0  0  0  0  0  0  0  0  0  0  0
    1.1296   -3.4485    0.0000 C   0  0  0  0  0  0  0  0  0  0  0  0
    1.5421   -2.7340    0.0000 C   0  0  0  0  0  0  0  0  0  0  0  0
    2.3671   -2.7340    0.0000 C   0  0  0  0  0  0  0  0  0  0  0  0
    2.7796   -2.0195    0.0000 S   0  0  0  0  0  0  0  0  0  0  0  0
    3.4941   -2.4320    0.0000 O   0  0  0  0  0  0  0  0  0  0  0  0
    2.0652   -1.6070    0.0000 O   0  0  0  0  0  0  0  0  0  0  0  0
    3.1921   -1.3050    0.0000 N   0  0  0  0  0  0  0  0  0  0  0  0
    4.0171   -1.3050    0.0000 C   0  0  0  0  0  0  0  0  0  0  0  0
    4.4296   -2.0195    0.0000 C   0  0  0  0  0  0  0  0  0  0  0  0
    5.2546   -2.0195    0.0000 C   0  0  0  0  0  0  0  0  0  0  0  0
    5.6671   -2.7340    0.0000 O   0  0  0  0  0  0  0  0  0  0  0  0
    2.7796   -0.5906    0.0000 C   0  0  0  0  0  0  0  0  0  0  0  0
    1.9591   -0.5043    0.0000 C   0  0  0  0  0  0  0  0  0  0  0  0
    1.7876    0.3026    0.0000 C   0  0  0  0  0  0  0  0  0  0  0  0
    2.5021    0.7151    0.0000 N   0  0  0  0  0  0  0  0  0  0  0  0
    3.1152    0.1631    0.0000 N   0  0  0  0  0  0  0  0  0  0  0  0
    3.9222    0.3346    0.0000 C   0  0  0  0  0  0  0  0  0  0  0  0
    4.1771    1.1192    0.0000 C   0  0  0  0  0  0  0  0  0  0  0  0
    4.9841    1.2908    0.0000 C   0  0  0  0  0  0  0  0  0  0  0  0
    5.5361    0.6777    0.0000 C   0  0  0  0  0  0  0  0  0  0  0  0
    5.2812   -0.1069    0.0000 C   0  0  0  0  0  0  0  0  0  0  0  0
    4.4742   -0.2785    0.0000 C   0  0  0  0  0  0  0  0  0  0  0  0
    2.7796   -3.4485    0.0000 C   0  0  0  0  0  0  0  0  0  0  0  0
    2.3671   -4.1629    0.0000 C   0  0  0  0  0  0  0  0  0  0  0  0
  1  2  2  0  0  0  0
  2  3  1  0  0  0  0
  3  4  1  0  0  0  0
  4  5  4  0  0  0  0
  5  6  4  0  0  0  0
  6  7  4  0  0  0  0
  7  8  1  0  0  0  0
  8  9  2  0  0  0  0
  8 10  2  0  0  0  0
  8 11  1  0  0  0  0
 11 12  1  0  0  0  0
 12 13  1  0  0  0  0
 13 14  1  0  0  0  0
 14 15  1  0  0  0  0
 11 16  1  0  0  0  0
 16 17  4  0  0  0  0
 17 18  4  0  0  0  0
 18 19  4  0  0  0  0
 19 20  4  0  0  0  0
 16 20  4  0  0  0  0
 20 21  1  0  0  0  0
 21 22  4  0  0  0  0
 22 23  4  0  0  0  0
 23 24  4  0  0  0  0
 24 25  4  0  0  0  0
 25 26  4  0  0  0  0
 21 26  4  0  0  0  0
  7 27  4  0  0  0  0
 27 28  4  0  0  0  0
  4 28  4  0  0  0  0
M  END
>  <CdId>
26

>  <Mol Weight>
397.49

>  <Formula>
C21H23N3O3S

>  <Molecule ChEMBL ID>
CHEMBL333210

>  <Molecule Max Phase>
None

>  <Molecular Weight>
397.5

>  <#RO5 Violations>
0

>  <AlogP>
3.18

>  <Compound Key>
16

>  <Standard Type>
IC50

>  <Standard Relation>
'='

>  <Standard Value>
35000.0

>  <Standard Units>
nM

$$$$

  Mrv2114 03112311372D          

 29 31  0  0  0  0            999 V2000
    1.5421   -7.0208    0.0000 N   0  0  0  0  0  0  0  0  0  0  0  0
    1.1296   -6.3063    0.0000 C   0  0  0  0  0  0  0  0  0  0  0  0
    1.5421   -5.5919    0.0000 C   0  0  0  0  0  0  0  0  0  0  0  0
    1.1296   -4.8774    0.0000 C   0  0  0  0  0  0  0  0  0  0  0  0
    1.5421   -4.1629    0.0000 C   0  0  0  0  0  0  0  0  0  0  0  0
    1.1296   -3.4485    0.0000 C   0  0  0  0  0  0  0  0  0  0  0  0
    1.5421   -2.7340    0.0000 C   0  0  0  0  0  0  0  0  0  0  0  0
    2.3671   -2.7340    0.0000 C   0  0  0  0  0  0  0  0  0  0  0  0
    2.7796   -2.0195    0.0000 S   0  0  0  0  0  0  0  0  0  0  0  0
    3.4941   -2.4320    0.0000 O   0  0  0  0  0  0  0  0  0  0  0  0
    2.0652   -1.6070    0.0000 O   0  0  0  0  0  0  0  0  0  0  0  0
    3.1921   -1.3050    0.0000 N   0  0  0  0  0  0  0  0  0  0  0  0
    4.0171   -1.3050    0.0000 C   0  0  0  0  0  0  0  0  0  0  0  0
    4.4296   -2.0195    0.0000 C   0  0  0  0  0  0  0  0  0  0  0  0
    5.2546   -2.0195    0.0000 C   0  0  0  0  0  0  0  0  0  0  0  0
    5.6671   -2.7340    0.0000 O   0  0  0  0  0  0  0  0  0  0  0  0
    2.7796   -0.5906    0.0000 C   0  0  0  0  0  0  0  0  0  0  0  0
    1.9591   -0.5043    0.0000 C   0  0  0  0  0  0  0  0  0  0  0  0
    1.7876    0.3026    0.0000 C   0  0  0  0  0  0  0  0  0  0  0  0
    2.5021    0.7151    0.0000 N   0  0  0  0  0  0  0  0  0  0  0  0
    3.1152    0.1631    0.0000 N   0  0  0  0  0  0  0  0  0  0  0  0
    3.9222    0.3346    0.0000 C   0  0  0  0  0  0  0  0  0  0  0  0
    4.1771    1.1192    0.0000 C   0  0  0  0  0  0  0  0  0  0  0  0
    4.9841    1.2908    0.0000 C   0  0  0  0  0  0  0  0  0  0  0  0
    5.5361    0.6777    0.0000 C   0  0  0  0  0  0  0  0  0  0  0  0
    5.2812   -0.1069    0.0000 C   0  0  0  0  0  0  0  0  0  0  0  0
    4.4742   -0.2785    0.0000 C   0  0  0  0  0  0  0  0  0  0  0  0
    2.7796   -3.4485    0.0000 C   0  0  0  0  0  0  0  0  0  0  0  0
    2.3671   -4.1629    0.0000 C   0  0  0  0  0  0  0  0  0  0  0  0
  1  2  1  0  0  0  0
  2  3  1  0  0  0  0
  3  4  1  0  0  0  0
  4  5  1  0  0  0  0
  5  6  4  0  0  0  0
  6  7  4  0  0  0  0
  7  8  4  0  0  0  0
  8  9  1  0  0  0  0
  9 10  2  0  0  0  0
  9 11  2  0  0  0  0
  9 12  1  0  0  0  0
 12 13  1  0  0  0  0
 13 14  1  0  0  0  0
 14 15  1  0  0  0  0
 15 16  1  0  0  0  0
 12 17  1  0  0  0  0
 17 18  4  0  0  0  0
 18 19  4  0  0  0  0
 19 20  4  0  0  0  0
 20 21  4  0  0  0  0
 17 21  4  0  0  0  0
 21 22  1  0  0  0  0
 22 23  4  0  0  0  0
 23 24  4  0  0  0  0
 24 25  4  0  0  0  0
 25 26  4  0  0  0  0
 26 27  4  0  0  0  0
 22 27  4  0  0  0  0
  8 28  4  0  0  0  0
 28 29  4  0  0  0  0
  5 29  4  0  0  0  0
M  END
>  <CdId>
27

>  <Mol Weight>
414.52

>  <Formula>
C21H26N4O3S

>  <Molecule ChEMBL ID>
CHEMBL121241

>  <Molecule Max Phase>
None

>  <Molecular Weight>
414.53

>  <#RO5 Violations>
0

>  <AlogP>
2.34

>  <Compound Key>
15

>  <Standard Type>
IC50

>  <Standard Relation>
'>'

>  <Standard Value>
200000.0

>  <Standard Units>
nM

$$$$

  Mrv2114 03112311372D          

 25 27  0  0  0  0            999 V2000
    0.6078   -1.2991    0.0000 C   0  0  0  0  0  0  0  0  0  0  0  0
    1.3222   -0.8866    0.0000 C   0  0  0  0  0  0  0  0  0  0  0  0
    1.3222   -0.0616    0.0000 C   0  0  0  0  0  0  0  0  0  0  0  0
    2.0367   -1.2991    0.0000 N   0  0  0  0  0  0  0  0  0  0  0  0
    2.0367   -2.1241    0.0000 C   0  0  0  0  0  0  0  0  0  0  0  0
    1.3693   -2.6090    0.0000 C   0  0  0  0  0  0  0  0  0  0  0  0
    1.6242   -3.3937    0.0000 C   0  0  0  0  0  0  0  0  0  0  0  0
    2.4492   -3.3937    0.0000 N   0  0  0  0  0  0  0  0  0  0  0  0
    2.7041   -2.6090    0.0000 N   0  0  0  0  0  0  0  0  0  0  0  0
    3.4888   -2.3541    0.0000 C   0  0  0  0  0  0  0  0  0  0  0  0
    3.6603   -1.5471    0.0000 C   0  0  0  0  0  0  0  0  0  0  0  0
    4.4449   -1.2922    0.0000 C   0  0  0  0  0  0  0  0  0  0  0  0
    5.0580   -1.8442    0.0000 C   0  0  0  0  0  0  0  0  0  0  0  0
    4.8865   -2.6512    0.0000 C   0  0  0  0  0  0  0  0  0  0  0  0
    4.1019   -2.9061    0.0000 C   0  0  0  0  0  0  0  0  0  0  0  0
    2.7512   -0.8866    0.0000 S   0  0  0  0  0  0  0  0  0  0  0  0
    3.1637   -1.6011    0.0000 O   0  0  0  0  0  0  0  0  0  0  0  0
    2.3387   -0.1721    0.0000 O   0  0  0  0  0  0  0  0  0  0  0  0
    3.4656   -0.4741    0.0000 C   0  0  0  0  0  0  0  0  0  0  0  0
    3.4656    0.3509    0.0000 C   0  0  0  0  0  0  0  0  0  0  0  0
    4.1801    0.7634    0.0000 C   0  0  0  0  0  0  0  0  0  0  0  0
    4.8946    0.3509    0.0000 C   0  0  0  0  0  0  0  0  0  0  0  0
    5.6091    0.7634    0.0000 N   0  0  0  0  0  0  0  0  0  0  0  0
    4.8946   -0.4741    0.0000 C   0  0  0  0  0  0  0  0  0  0  0  0
    4.1801   -0.8866    0.0000 C   0  0  0  0  0  0  0  0  0  0  0  0
  1  2  1  0  0  0  0
  2  3  1  0  0  0  0
  2  4  1  0  0  0  0
  4  5  1  0  0  0  0
  5  6  4  0  0  0  0
  6  7  4  0  0  0  0
  7  8  4  0  0  0  0
  8  9  4  0  0  0  0
  5  9  4  0  0  0  0
  9 10  1  0  0  0  0
 10 11  4  0  0  0  0
 11 12  4  0  0  0  0
 12 13  4  0  0  0  0
 13 14  4  0  0  0  0
 14 15  4  0  0  0  0
 10 15  4  0  0  0  0
  4 16  1  0  0  0  0
 16 17  2  0  0  0  0
 16 18  2  0  0  0  0
 16 19  1  0  0  0  0
 19 20  4  0  0  0  0
 20 21  4  0  0  0  0
 21 22  4  0  0  0  0
 22 23  1  0  0  0  0
 22 24  4  0  0  0  0
 24 25  4  0  0  0  0
 19 25  4  0  0  0  0
M  END
>  <CdId>
28

>  <Mol Weight>
356.44

>  <Formula>
C18H20N4O2S

>  <Molecule ChEMBL ID>
CHEMBL121323

>  <Molecule Max Phase>
None

>  <Molecular Weight>
356.45

>  <#RO5 Violations>
0

>  <AlogP>
3.06

>  <Compound Key>
9

>  <Standard Type>
IC50

>  <Standard Relation>
'='

>  <Standard Value>
30000.0

>  <Standard Units>
nM

$$$$

  Mrv2114 03112311372D          

 39 44  0  0  0  0            999 V2000
    1.1809   -3.5477    0.0000 C   0  0  0  0  0  0  0  0  0  0  0  0
    1.4358   -2.7631    0.0000 N   0  0  0  0  0  0  0  0  0  0  0  0
    0.8838   -2.1500    0.0000 C   0  0  0  0  0  0  0  0  0  0  0  0
    0.0768   -2.3215    0.0000 O   0  0  0  0  0  0  0  0  0  0  0  0
    1.1387   -1.3654    0.0000 C   0  0  0  0  0  0  0  0  0  0  0  0
    0.6538   -0.6979    0.0000 C   0  0  0  0  0  0  0  0  0  0  0  0
   -0.1712   -0.6979    0.0000 C   0  0  0  0  0  0  0  0  0  0  0  0
   -0.5837   -1.4124    0.0000 C   0  0  0  0  0  0  0  0  0  0  0  0
   -1.4087   -1.4124    0.0000 C   0  0  0  0  0  0  0  0  0  0  0  0
   -1.8212   -0.6979    0.0000 C   0  0  0  0  0  0  0  0  0  0  0  0
   -2.6462   -0.6979    0.0000 F   0  0  0  0  0  0  0  0  0  0  0  0
   -1.4087    0.0165    0.0000 C   0  0  0  0  0  0  0  0  0  0  0  0
   -0.5837    0.0165    0.0000 C   0  0  0  0  0  0  0  0  0  0  0  0
    1.1387   -0.0305    0.0000 O   0  0  0  0  0  0  0  0  0  0  0  0
    1.9233   -0.2854    0.0000 C   0  0  0  0  0  0  0  0  0  0  0  0
    2.6378    0.1271    0.0000 C   0  0  0  0  0  0  0  0  0  0  0  0
    3.3523   -0.2854    0.0000 C   0  0  0  0  0  0  0  0  0  0  0  0
    3.3523   -1.1104    0.0000 C   0  0  0  0  0  0  0  0  0  0  0  0
    4.0668   -1.5229    0.0000 C   0  0  0  0  0  0  0  0  0  0  0  0
    4.7812   -1.1104    0.0000 C   0  0  0  0  0  0  0  0  0  0  0  0
    5.4957   -1.5229    0.0000 C   0  0  0  0  0  0  0  0  0  0  0  0
    6.2102   -1.1104    0.0000 C   0  0  0  0  0  0  0  0  0  0  0  0
    6.9246   -1.5229    0.0000 O   0  0  0  0  0  0  0  0  0  0  0  0
    6.2102   -0.2854    0.0000 N   0  0  0  0  0  0  0  0  0  0  0  0
    6.9246    0.1271    0.0000 C   0  0  0  0  0  0  0  0  0  0  0  0
    6.6425    0.9023    0.0000 C   0  0  0  0  0  0  0  0  0  0  0  0
    5.8300    1.0456    0.0000 C   0  0  0  0  0  0  0  0  0  0  0  0
    5.5478    1.8208    0.0000 C   0  0  0  0  0  0  0  0  0  0  0  0
    6.0781    2.4528    0.0000 N   0  0  0  0  0  0  0  0  0  0  0  0
    6.8906    2.3095    0.0000 C   0  0  0  0  0  0  0  0  0  0  0  0
    7.1728    1.5343    0.0000 C   0  0  0  0  0  0  0  0  0  0  0  0
    7.4549   -0.5049    0.0000 C   0  0  0  0  0  0  0  0  0  0  0  0
    7.7371    0.2703    0.0000 C   0  0  0  0  0  0  0  0  0  0  0  0
    5.4957   -2.3479    0.0000 C   0  0  0  0  0  0  0  0  0  0  0  0
    4.7812   -2.7604    0.0000 C   0  0  0  0  0  0  0  0  0  0  0  0
    4.0668   -2.3479    0.0000 C   0  0  0  0  0  0  0  0  0  0  0  0
    3.3523   -2.7604    0.0000 C   0  0  0  0  0  0  0  0  0  0  0  0
    2.6378   -1.5229    0.0000 C   0  0  0  0  0  0  0  0  0  0  0  0
    1.9233   -1.1104    0.0000 C   0  0  0  0  0  0  0  0  0  0  0  0
  1  2  1  0  0  0  0
  2  3  1  0  0  0  0
  3  4  2  0  0  0  0
  3  5  1  0  0  0  0
  5  6  4  0  0  0  0
  6  7  1  0  0  0  0
  7  8  4  0  0  0  0
  8  9  4  0  0  0  0
  9 10  4  0  0  0  0
 10 11  1  0  0  0  0
 10 12  4  0  0  0  0
 12 13  4  0  0  0  0
  7 13  4  0  0  0  0
  6 14  4  0  0  0  0
 14 15  4  0  0  0  0
 15 16  4  0  0  0  0
 16 17  4  0  0  0  0
 17 18  4  0  0  0  0
 18 19  1  0  0  0  0
 19 20  4  0  0  0  0
 20 21  4  0  0  0  0
 21 22  1  0  0  0  0
 22 23  2  0  0  0  0
 22 24  1  0  0  0  0
 24 25  1  0  0  0  0
 25 26  1  0  0  0  0
 26 27  4  0  0  0  0
 27 28  4  0  0  0  0
 28 29  4  0  0  0  0
 29 30  4  0  0  0  0
 30 31  4  0  0  0  0
 26 31  4  0  0  0  0
 25 32  1  0  0  0  0
 32 33  1  0  0  0  0
 25 33  1  0  0  0  0
 21 34  4  0  0  0  0
 34 35  4  0  0  0  0
 35 36  4  0  0  0  0
 19 36  4  0  0  0  0
 36 37  1  0  0  0  0
 18 38  4  0  0  0  0
 38 39  4  0  0  0  0
  5 39  4  0  0  0  0
 15 39  4  0  0  0  0
M  END
>  <CdId>
29

>  <Mol Weight>
519.576

>  <Formula>
C32H26FN3O3

>  <Molecule ChEMBL ID>
CHEMBL4086080

>  <Molecule Max Phase>
None

>  <Molecular Weight>
519.58

>  <#RO5 Violations>
2

>  <AlogP>
6.39

>  <Compound Key>
31

>  <Standard Type>
IC50

>  <Standard Relation>
'='

>  <Standard Value>
26.0

>  <Standard Units>
nM

$$$$

  Mrv2114 03112311372D          

 27 30  0  0  0  0            999 V2000
    4.7812    1.9354    0.0000 C   0  0  0  0  0  0  0  0  0  0  0  0
    4.0668    2.3479    0.0000 O   0  0  0  0  0  0  0  0  0  0  0  0
    3.3523    1.9354    0.0000 C   0  0  0  0  0  0  0  0  0  0  0  0
    3.3523    1.1104    0.0000 C   0  0  0  0  0  0  0  0  0  0  0  0
    2.6378    0.6979    0.0000 C   0  0  0  0  0  0  0  0  0  0  0  0
    1.9233    1.1104    0.0000 C   0  0  0  0  0  0  0  0  0  0  0  0
    1.1387    0.8555    0.0000 N   0  0  0  0  0  0  0  0  0  0  0  0
    0.6538    1.5229    0.0000 C   0  0  0  0  0  0  0  0  0  0  0  0
   -0.1712    1.5229    0.0000 S   0  0  0  0  0  0  0  0  0  0  0  0
   -0.5837    0.8085    0.0000 C   0  0  0  0  0  0  0  0  0  0  0  0
   -1.4087    0.8085    0.0000 C   0  0  0  0  0  0  0  0  0  0  0  0
   -1.8212    0.0940    0.0000 C   0  0  0  0  0  0  0  0  0  0  0  0
   -2.6462    0.0940    0.0000 C   0  0  0  0  0  0  0  0  0  0  0  0
   -3.0587    0.8085    0.0000 C   0  0  0  0  0  0  0  0  0  0  0  0
   -3.8837    0.8085    0.0000 O   0  0  0  0  0  0  0  0  0  0  0  0
   -4.2962    0.0940    0.0000 C   0  0  0  0  0  0  0  0  0  0  0  0
   -5.1212    0.0940    0.0000 C   0  0  0  0  0  0  0  0  0  0  0  0
   -5.5337   -0.6205    0.0000 C   0  0  0  0  0  0  0  0  0  0  0  0
   -6.3587   -0.6205    0.0000 C   0  0  0  0  0  0  0  0  0  0  0  0
   -6.7712    0.0940    0.0000 C   0  0  0  0  0  0  0  0  0  0  0  0
   -6.3587    0.8085    0.0000 C   0  0  0  0  0  0  0  0  0  0  0  0
   -5.5337    0.8085    0.0000 C   0  0  0  0  0  0  0  0  0  0  0  0
   -2.6462    1.5229    0.0000 C   0  0  0  0  0  0  0  0  0  0  0  0
   -1.8212    1.5229    0.0000 C   0  0  0  0  0  0  0  0  0  0  0  0
    1.1387    2.1904    0.0000 N   0  0  0  0  0  0  0  0  0  0  0  0
    1.9233    1.9354    0.0000 C   0  0  0  0  0  0  0  0  0  0  0  0
    2.6378    2.3479    0.0000 C   0  0  0  0  0  0  0  0  0  0  0  0
  1  2  1  0  0  0  0
  2  3  1  0  0  0  0
  3  4  4  0  0  0  0
  4  5  4  0  0  0  0
  5  6  4  0  0  0  0
  6  7  4  0  0  0  0
  7  8  4  0  0  0  0
  8  9  1  0  0  0  0
  9 10  1  0  0  0  0
 10 11  1  0  0  0  0
 11 12  4  0  0  0  0
 12 13  4  0  0  0  0
 13 14  4  0  0  0  0
 14 15  1  0  0  0  0
 15 16  1  0  0  0  0
 16 17  1  0  0  0  0
 17 18  4  0  0  0  0
 18 19  4  0  0  0  0
 19 20  4  0  0  0  0
 20 21  4  0  0  0  0
 21 22  4  0  0  0  0
 17 22  4  0  0  0  0
 14 23  4  0  0  0  0
 23 24  4  0  0  0  0
 11 24  4  0  0  0  0
  8 25  4  0  0  0  0
 25 26  4  0  0  0  0
  6 26  4  0  0  0  0
 26 27  4  0  0  0  0
  3 27  4  0  0  0  0
M  STY  1   1 DAT
M  SAL   1  1   7
M  SDT   1 MRV_IMPLICIT_H                                        
M  SDD   1     0.0000    0.0000    DR    ALL  0       0  
M  SED   1 IMPL_H1
M  END
>  <CdId>
30

>  <Mol Weight>
376.47

>  <Formula>
C22H20N2O2S

>  <Molecule ChEMBL ID>
CHEMBL2018926

>  <Molecule Max Phase>
None

>  <Molecular Weight>
376.48

>  <#RO5 Violations>
1

>  <AlogP>
5.44

>  <Compound Key>
26

>  <Standard Type>
IC50

>  <Standard Relation>
'='

>  <Standard Value>
680.0

>  <Standard Units>
nM

$$$$

  Mrv2114 03112311372D          

 17 19  0  0  0  0            999 V2000
   -3.0587   -1.4124    0.0000 C   0  0  0  0  0  0  0  0  0  0  0  0
   -2.6462   -0.6979    0.0000 C   0  0  0  0  0  0  0  0  0  0  0  0
   -1.8212   -0.6979    0.0000 C   0  0  0  0  0  0  0  0  0  0  0  0
   -1.4087   -1.4124    0.0000 C   0  0  0  0  0  0  0  0  0  0  0  0
   -0.5837   -1.4124    0.0000 C   0  0  0  0  0  0  0  0  0  0  0  0
   -0.1712   -0.6979    0.0000 S   0  0  0  0  0  0  0  0  0  0  0  0
    0.6538   -0.6979    0.0000 C   0  0  0  0  0  0  0  0  0  0  0  0
    1.1387   -0.0305    0.0000 N   0  0  0  0  0  0  0  0  0  0  0  0
    1.9233   -0.2854    0.0000 C   0  0  0  0  0  0  0  0  0  0  0  0
    2.6378    0.1271    0.0000 C   0  0  0  0  0  0  0  0  0  0  0  0
    3.3523   -0.2854    0.0000 C   0  0  0  0  0  0  0  0  0  0  0  0
    3.3523   -1.1104    0.0000 C   0  0  0  0  0  0  0  0  0  0  0  0
    2.6378   -1.5229    0.0000 C   0  0  0  0  0  0  0  0  0  0  0  0
    1.9233   -1.1104    0.0000 C   0  0  0  0  0  0  0  0  0  0  0  0
    1.1387   -1.3654    0.0000 N   0  0  0  0  0  0  0  0  0  0  0  0
   -1.8212   -2.1269    0.0000 N   0  0  0  0  0  0  0  0  0  0  0  0
   -2.6462   -2.1269    0.0000 C   0  0  0  0  0  0  0  0  0  0  0  0
  1  2  4  0  0  0  0
  2  3  4  0  0  0  0
  3  4  4  0  0  0  0
  4  5  1  0  0  0  0
  5  6  1  0  0  0  0
  6  7  1  0  0  0  0
  7  8  4  0  0  0  0
  8  9  4  0  0  0  0
  9 10  4  0  0  0  0
 10 11  4  0  0  0  0
 11 12  4  0  0  0  0
 12 13  4  0  0  0  0
 13 14  4  0  0  0  0
  9 14  4  0  0  0  0
 14 15  4  0  0  0  0
  7 15  4  0  0  0  0
  4 16  4  0  0  0  0
 16 17  4  0  0  0  0
  1 17  4  0  0  0  0
M  STY  1   1 DAT
M  SAL   1  1  15
M  SDT   1 MRV_IMPLICIT_H                                        
M  SDD   1     0.0000    0.0000    DR    ALL  0       0  
M  SED   1 IMPL_H1
M  END
>  <CdId>
31

>  <Mol Weight>
241.31

>  <Formula>
C13H11N3S

>  <Molecule ChEMBL ID>
CHEMBL296580

>  <Molecule Max Phase>
None

>  <Molecular Weight>
241.32

>  <#RO5 Violations>
0

>  <AlogP>
3.25

>  <Compound Key>
29

>  <Standard Type>
IC50

>  <Standard Relation>
'='

>  <Standard Value>
4780.0

>  <Standard Units>
nM

$$$$

  Mrv2114 03112311372D          

 32 35  0  0  0  0            999 V2000
    1.5421   -7.0208    0.0000 N   0  0  0  0  0  0  0  0  0  0  0  0
    1.1296   -6.3063    0.0000 C   0  0  0  0  0  0  0  0  0  0  0  0
    0.3046   -6.3063    0.0000 C   0  0  0  0  0  0  0  0  0  0  0  0
   -0.1079   -5.5919    0.0000 C   0  0  0  0  0  0  0  0  0  0  0  0
    0.3046   -4.8774    0.0000 C   0  0  0  0  0  0  0  0  0  0  0  0
    1.1296   -4.8774    0.0000 C   0  0  0  0  0  0  0  0  0  0  0  0
    1.5421   -4.1629    0.0000 C   0  0  0  0  0  0  0  0  0  0  0  0
    1.1296   -3.4485    0.0000 C   0  0  0  0  0  0  0  0  0  0  0  0
    1.5421   -2.7340    0.0000 C   0  0  0  0  0  0  0  0  0  0  0  0
    2.3671   -2.7340    0.0000 C   0  0  0  0  0  0  0  0  0  0  0  0
    2.7796   -2.0195    0.0000 S   0  0  0  0  0  0  0  0  0  0  0  0
    3.4941   -2.4320    0.0000 O   0  0  0  0  0  0  0  0  0  0  0  0
    2.0652   -1.6070    0.0000 O   0  0  0  0  0  0  0  0  0  0  0  0
    3.1921   -1.3050    0.0000 N   0  0  0  0  0  0  0  0  0  0  0  0
    4.0171   -1.3050    0.0000 C   0  0  0  0  0  0  0  0  0  0  0  0
    4.4296   -2.0195    0.0000 C   0  0  0  0  0  0  0  0  0  0  0  0
    5.2546   -2.0195    0.0000 C   0  0  0  0  0  0  0  0  0  0  0  0
    5.6671   -2.7340    0.0000 O   0  0  0  0  0  0  0  0  0  0  0  0
    2.7796   -0.5906    0.0000 C   0  0  0  0  0  0  0  0  0  0  0  0
    1.9591   -0.5043    0.0000 C   0  0  0  0  0  0  0  0  0  0  0  0
    1.7876    0.3026    0.0000 C   0  0  0  0  0  0  0  0  0  0  0  0
    2.5021    0.7151    0.0000 N   0  0  0  0  0  0  0  0  0  0  0  0
    3.1152    0.1631    0.0000 N   0  0  0  0  0  0  0  0  0  0  0  0
    3.9222    0.3346    0.0000 C   0  0  0  0  0  0  0  0  0  0  0  0
    4.1771    1.1192    0.0000 C   0  0  0  0  0  0  0  0  0  0  0  0
    4.9841    1.2908    0.0000 C   0  0  0  0  0  0  0  0  0  0  0  0
    5.5361    0.6777    0.0000 C   0  0  0  0  0  0  0  0  0  0  0  0
    5.2812   -0.1069    0.0000 C   0  0  0  0  0  0  0  0  0  0  0  0
    4.4742   -0.2785    0.0000 C   0  0  0  0  0  0  0  0  0  0  0  0
    2.7796   -3.4485    0.0000 C   0  0  0  0  0  0  0  0  0  0  0  0
    2.3671   -4.1629    0.0000 C   0  0  0  0  0  0  0  0  0  0  0  0
    1.5421   -5.5919    0.0000 C   0  0  0  0  0  0  0  0  0  0  0  0
  1  2  1  0  0  0  0
  2  3  4  0  0  0  0
  3  4  4  0  0  0  0
  4  5  4  0  0  0  0
  5  6  4  0  0  0  0
  6  7  1  0  0  0  0
  7  8  4  0  0  0  0
  8  9  4  0  0  0  0
  9 10  4  0  0  0  0
 10 11  1  0  0  0  0
 11 12  2  0  0  0  0
 11 13  2  0  0  0  0
 11 14  1  0  0  0  0
 14 15  1  0  0  0  0
 15 16  1  0  0  0  0
 16 17  1  0  0  0  0
 17 18  1  0  0  0  0
 14 19  1  0  0  0  0
 19 20  4  0  0  0  0
 20 21  4  0  0  0  0
 21 22  4  0  0  0  0
 22 23  4  0  0  0  0
 19 23  4  0  0  0  0
 23 24  1  0  0  0  0
 24 25  4  0  0  0  0
 25 26  4  0  0  0  0
 26 27  4  0  0  0  0
 27 28  4  0  0  0  0
 28 29  4  0  0  0  0
 24 29  4  0  0  0  0
 10 30  4  0  0  0  0
 30 31  4  0  0  0  0
  7 31  4  0  0  0  0
  6 32  4  0  0  0  0
  2 32  4  0  0  0  0
M  END
>  <CdId>
32

>  <Mol Weight>
448.54

>  <Formula>
C24H24N4O3S

>  <Molecule ChEMBL ID>
CHEMBL121503

>  <Molecule Max Phase>
None

>  <Molecular Weight>
448.55

>  <#RO5 Violations>
0

>  <AlogP>
3.7

>  <Compound Key>
17

>  <Standard Type>
IC50

>  <Standard Relation>
'='

>  <Standard Value>
13000.0

>  <Standard Units>
nM

$$$$

  Mrv2114 03112311372D          

 34 38  0  0  0  0            999 V2000
    2.1434   -1.2375    0.0000 C   0  0  0  0  0  0  0  0  0  0  0  0
    1.4289   -1.6500    0.0000 N   0  0  0  0  0  0  0  0  0  0  0  0
    0.7145   -1.2375    0.0000 C   0  0  0  0  0  0  0  0  0  0  0  0
    0.7145   -0.4125    0.0000 C   0  0  0  0  0  0  0  0  0  0  0  0
    0.0000    0.0000    0.0000 C   0  0  0  0  0  0  0  0  0  0  0  0
   -0.7846   -0.2549    0.0000 C   0  0  0  0  0  0  0  0  0  0  0  0
   -1.0396   -1.0396    0.0000 O   0  0  0  0  0  0  0  0  0  0  0  0
   -1.2695    0.4125    0.0000 N   0  0  0  0  0  0  0  0  0  0  0  0
   -2.0945    0.4125    0.0000 C   0  0  0  0  0  0  0  0  0  0  0  0
   -2.5070    1.1270    0.0000 C   0  0  0  0  0  0  0  0  0  0  0  0
   -3.3320    1.1270    0.0000 C   0  0  0  0  0  0  0  0  0  0  0  0
   -3.7445    0.4125    0.0000 C   0  0  0  0  0  0  0  0  0  0  0  0
   -3.3320   -0.3020    0.0000 C   0  0  0  0  0  0  0  0  0  0  0  0
   -2.5070   -0.3020    0.0000 C   0  0  0  0  0  0  0  0  0  0  0  0
   -2.0945   -1.0164    0.0000 Cl  0  0  0  0  0  0  0  0  0  0  0  0
   -0.7846    1.0799    0.0000 N   0  0  0  0  0  0  0  0  0  0  0  0
    0.0000    0.8250    0.0000 C   0  0  0  0  0  0  0  0  0  0  0  0
    0.7145    1.2375    0.0000 C   0  0  0  0  0  0  0  0  0  0  0  0
    1.4289    0.8250    0.0000 C   0  0  0  0  0  0  0  0  0  0  0  0
    2.1434    1.2375    0.0000 O   0  0  0  0  0  0  0  0  0  0  0  0
    1.4289    0.0000    0.0000 N   0  0  0  0  0  0  0  0  0  0  0  0
    2.1434   -0.4125    0.0000 C   0  0  0  0  0  0  0  0  0  0  0  0
    2.8579    0.0000    0.0000 C   0  0  0  0  0  0  0  0  0  0  0  0
    2.8579    0.8250    0.0000 C   0  0  0  0  0  0  0  0  0  0  0  0
    3.5724    1.2375    0.0000 C   0  0  0  0  0  0  0  0  0  0  0  0
    4.2868    0.8250    0.0000 N   0  0  0  0  0  0  0  0  0  0  0  0
    4.2868    0.0000    0.0000 C   0  0  0  0  0  0  0  0  0  0  0  0
    3.5724   -0.4125    0.0000 C   0  0  0  0  0  0  0  0  0  0  0  0
    1.4289   -2.4750    0.0000 C   0  0  0  0  0  0  0  0  0  0  0  0
    2.1434   -2.8875    0.0000 C   0  0  0  0  0  0  0  0  0  0  0  0
    2.1434   -3.7125    0.0000 C   0  0  0  0  0  0  0  0  0  0  0  0
    1.4289   -4.1250    0.0000 C   0  0  0  0  0  0  0  0  0  0  0  0
    0.7145   -3.7125    0.0000 C   0  0  0  0  0  0  0  0  0  0  0  0
    0.7145   -2.8875    0.0000 C   0  0  0  0  0  0  0  0  0  0  0  0
  1  2  1  0  0  0  0
  2  3  1  0  0  0  0
  3  4  1  0  0  0  0
  4  5  4  0  0  0  0
  5  6  4  0  0  0  0
  6  7  2  0  0  0  0
  6  8  4  0  0  0  0
  8  9  1  0  0  0  0
  9 10  4  0  0  0  0
 10 11  4  0  0  0  0
 11 12  4  0  0  0  0
 12 13  4  0  0  0  0
 13 14  4  0  0  0  0
  9 14  4  0  0  0  0
 14 15  1  0  0  0  0
  8 16  4  0  0  0  0
 16 17  4  0  0  0  0
  5 17  4  0  0  0  0
 17 18  4  0  0  0  0
 18 19  4  0  0  0  0
 19 20  2  0  0  0  0
 19 21  4  0  0  0  0
  4 21  4  0  0  0  0
 21 22  1  0  0  0  0
 22 23  1  0  0  0  0
 23 24  4  0  0  0  0
 24 25  4  0  0  0  0
 25 26  4  0  0  0  0
 26 27  4  0  0  0  0
 27 28  4  0  0  0  0
 23 28  4  0  0  0  0
  2 29  1  0  0  0  0
 29 30  4  0  0  0  0
 30 31  4  0  0  0  0
 31 32  4  0  0  0  0
 32 33  4  0  0  0  0
 33 34  4  0  0  0  0
 29 34  4  0  0  0  0
M  STY  1   1 DAT
M  SAL   1  1  16
M  SDT   1 MRV_IMPLICIT_H                                        
M  SDD   1     0.0000    0.0000    DR    ALL  0       0  
M  SED   1 IMPL_H1
M  END
>  <CdId>
33

>  <Mol Weight>
471.95

>  <Formula>
C26H22ClN5O2

>  <Molecule ChEMBL ID>
CHEMBL1277677

>  <Molecule Max Phase>
None

>  <Molecular Weight>
471.95

>  <#RO5 Violations>
0

>  <AlogP>
4.21

>  <Compound Key>
84

>  <Standard Type>
IC50

>  <Standard Relation>
'='

>  <Standard Value>
3600.0

>  <Standard Units>
nM

$$$$

  Mrv2114 03112311372D          

 27 30  0  0  0  0            999 V2000
    5.4896   -1.6384    0.0000 O   0  0  0  0  0  0  0  0  0  0  0  0
    5.6358   -0.8265    0.0000 C   0  0  0  0  0  0  0  0  0  0  0  0
    5.0058   -0.2939    0.0000 C   0  0  0  0  0  0  0  0  0  0  0  0
    4.2295   -0.5732    0.0000 C   0  0  0  0  0  0  0  0  0  0  0  0
    3.5995   -0.0406    0.0000 C   0  0  0  0  0  0  0  0  0  0  0  0
    3.6601    0.7822    0.0000 N   0  0  0  0  0  0  0  0  0  0  0  0
    2.8963    1.0941    0.0000 O   0  0  0  0  0  0  0  0  0  0  0  0
    2.3637    0.4640    0.0000 C   0  0  0  0  0  0  0  0  0  0  0  0
    2.7983   -0.2372    0.0000 C   0  0  0  0  0  0  0  0  0  0  0  0
    2.4083   -0.9642    0.0000 C   0  0  0  0  0  0  0  0  0  0  0  0
    1.5837   -0.9900    0.0000 C   0  0  0  0  0  0  0  0  0  0  0  0
    1.1491   -0.2887    0.0000 C   0  0  0  0  0  0  0  0  0  0  0  0
    0.3245   -0.3145    0.0000 C   0  0  0  0  0  0  0  0  0  0  0  0
   -0.1101    0.3867    0.0000 C   0  0  0  0  0  0  0  0  0  0  0  0
   -0.9347    0.3610    0.0000 O   0  0  0  0  0  0  0  0  0  0  0  0
    0.2799    1.1137    0.0000 C   0  0  0  0  0  0  0  0  0  0  0  0
    1.1045    1.1395    0.0000 C   0  0  0  0  0  0  0  0  0  0  0  0
    1.5391    0.4383    0.0000 C   0  0  0  0  0  0  0  0  0  0  0  0
    6.4121   -0.5472    0.0000 N   0  0  0  0  0  0  0  0  0  0  0  0
    7.0422   -1.0798    0.0000 C   0  0  0  0  0  0  0  0  0  0  0  0
    7.8434   -0.8831    0.0000 C   0  0  0  0  0  0  0  0  0  0  0  0
    8.1552   -0.1194    0.0000 C   0  0  0  0  0  0  0  0  0  0  0  0
    7.6497    0.5326    0.0000 O   0  0  0  0  0  0  0  0  0  0  0  0
    8.9726   -0.0075    0.0000 O   0  0  0  0  0  0  0  0  0  0  0  0
    8.2780   -1.5844    0.0000 C   0  0  0  0  0  0  0  0  0  0  0  0
    7.7454   -2.2144    0.0000 C   0  0  0  0  0  0  0  0  0  0  0  0
    6.9816   -1.9026    0.0000 C   0  0  0  0  0  0  0  0  0  0  0  0
  1  2  2  0  0  0  0
  2  3  1  0  0  0  0
  3  4  1  0  0  0  0
  4  5  1  0  0  0  0
  5  6  4  0  0  0  0
  6  7  4  0  0  0  0
  7  8  4  0  0  0  0
  8  9  4  0  0  0  0
  5  9  4  0  0  0  0
  9 10  1  0  0  0  0
 10 11  1  0  0  0  0
 11 12  1  0  0  0  0
 12 13  4  0  0  0  0
 13 14  4  0  0  0  0
 14 15  1  0  0  0  0
 14 16  4  0  0  0  0
 16 17  4  0  0  0  0
 17 18  4  0  0  0  0
 12 18  4  0  0  0  0
  8 18  1  0  0  0  0
  2 19  1  0  0  0  0
 19 20  1  0  0  0  0
 20 21  2  0  0  0  0
 21 22  1  0  0  0  0
 22 23  2  0  0  0  0
 22 24  1  0  0  0  0
 21 25  1  0  0  0  0
 25 26  1  0  0  0  0
 26 27  1  0  0  0  0
 20 27  1  0  0  0  0
M  END
>  <CdId>
34

>  <Mol Weight>
368.389

>  <Formula>
C20H20N2O5

>  <Molecule ChEMBL ID>
CHEMBL485326

>  <Molecule Max Phase>
None

>  <Molecular Weight>
368.39

>  <#RO5 Violations>
0

>  <AlogP>
2.72

>  <Compound Key>
3g

>  <Standard Type>
IC50

>  <Standard Relation>
'='

>  <Standard Value>
47000.0

>  <Standard Units>
nM

$$$$

  Mrv2114 03112311372D          

 34 37  0  0  0  0            999 V2000
   -6.6000    0.2211    0.0000 C   0  0  0  0  0  0  0  0  0  0  0  0
   -6.6000   -0.6039    0.0000 C   0  0  0  0  0  0  0  0  0  0  0  0
   -5.8855   -1.0164    0.0000 C   0  0  0  0  0  0  0  0  0  0  0  0
   -5.8855   -1.8414    0.0000 C   0  0  0  0  0  0  0  0  0  0  0  0
   -5.1711   -2.2539    0.0000 C   0  0  0  0  0  0  0  0  0  0  0  0
   -5.1711   -3.0789    0.0000 C   0  0  0  0  0  0  0  0  0  0  0  0
   -5.8855   -3.4914    0.0000 C   0  0  0  0  0  0  0  0  0  0  0  0
   -5.8855   -4.3164    0.0000 C   0  0  0  0  0  0  0  0  0  0  0  0
   -6.6000   -4.7289    0.0000 O   0  0  0  0  0  0  0  0  0  0  0  0
   -5.1711   -4.7289    0.0000 C   0  0  0  0  0  0  0  0  0  0  0  0
   -5.1711   -5.5539    0.0000 C   0  0  0  0  0  0  0  0  0  0  0  0
   -4.4566   -5.9664    0.0000 C   0  0  0  0  0  0  0  0  0  0  0  0
   -4.4566   -6.7914    0.0000 N   0  0  0  0  0  0  0  0  0  0  0  0
   -3.7421   -7.2039    0.0000 C   0  0  0  0  0  0  0  0  0  0  0  0
   -3.7421   -8.0289    0.0000 C   0  0  0  0  0  0  0  0  0  0  0  0
   -4.4566   -8.4414    0.0000 C   0  0  0  0  0  0  0  0  0  0  0  0
   -4.4566   -9.2664    0.0000 C   0  0  0  0  0  0  0  0  0  0  0  0
   -5.2816   -9.2664    0.0000 O   0  0  0  0  0  0  0  0  0  0  0  0
   -4.4566  -10.0914    0.0000 C   0  0  0  0  0  0  0  0  0  0  0  0
   -3.7421  -10.5039    0.0000 C   0  0  0  0  0  0  0  0  0  0  0  0
   -3.7421  -11.3289    0.0000 C   0  0  0  0  0  0  0  0  0  0  0  0
   -4.4566  -11.7414    0.0000 C   0  0  0  0  0  0  0  0  0  0  0  0
   -5.1711  -11.3289    0.0000 C   0  0  0  0  0  0  0  0  0  0  0  0
   -5.1711  -10.5039    0.0000 C   0  0  0  0  0  0  0  0  0  0  0  0
   -3.6316   -9.2664    0.0000 C   0  0  0  0  0  0  0  0  0  0  0  0
   -3.2191   -8.5520    0.0000 C   0  0  0  0  0  0  0  0  0  0  0  0
   -2.3941   -8.5520    0.0000 C   0  0  0  0  0  0  0  0  0  0  0  0
   -1.9816   -9.2664    0.0000 C   0  0  0  0  0  0  0  0  0  0  0  0
   -2.3941   -9.9809    0.0000 C   0  0  0  0  0  0  0  0  0  0  0  0
   -3.2191   -9.9809    0.0000 C   0  0  0  0  0  0  0  0  0  0  0  0
   -5.1711   -8.0289    0.0000 C   0  0  0  0  0  0  0  0  0  0  0  0
   -5.1711   -7.2039    0.0000 C   0  0  0  0  0  0  0  0  0  0  0  0
   -6.6000   -3.0789    0.0000 C   0  0  0  0  0  0  0  0  0  0  0  0
   -6.6000   -2.2539    0.0000 C   0  0  0  0  0  0  0  0  0  0  0  0
  1  2  1  0  0  0  0
  2  3  1  0  0  0  0
  3  4  1  0  0  0  0
  4  5  4  0  0  0  0
  5  6  4  0  0  0  0
  6  7  4  0  0  0  0
  7  8  1  0  0  0  0
  8  9  2  0  0  0  0
  8 10  1  0  0  0  0
 10 11  1  0  0  0  0
 11 12  1  0  0  0  0
 12 13  1  0  0  0  0
 13 14  1  0  0  0  0
 14 15  1  0  0  0  0
 15 16  1  0  0  0  0
 16 17  1  0  0  0  0
 17 18  1  0  0  0  0
 17 19  1  0  0  0  0
 19 20  4  0  0  0  0
 20 21  4  0  0  0  0
 21 22  4  0  0  0  0
 22 23  4  0  0  0  0
 23 24  4  0  0  0  0
 19 24  4  0  0  0  0
 17 25  1  0  0  0  0
 25 26  4  0  0  0  0
 26 27  4  0  0  0  0
 27 28  4  0  0  0  0
 28 29  4  0  0  0  0
 29 30  4  0  0  0  0
 25 30  4  0  0  0  0
 16 31  1  0  0  0  0
 31 32  1  0  0  0  0
 13 32  1  0  0  0  0
  7 33  4  0  0  0  0
 33 34  4  0  0  0  0
  4 34  4  0  0  0  0
M  END
>  <CdId>
35

>  <Mol Weight>
455.642

>  <Formula>
C31H37NO2

>  <Molecule ChEMBL ID>
CHEMBL208528

>  <Molecule Max Phase>
None

>  <Molecular Weight>
455.64

>  <#RO5 Violations>
1

>  <AlogP>
6.25

>  <Compound Key>
4

>  <Standard Type>
IC50

>  <Standard Relation>
'>'

>  <Standard Value>
100000.0

>  <Standard Units>
nM

$$$$

  Mrv2114 03112311372D          

 31 34  0  0  0  0            999 V2000
    2.7512    0.7634    0.0000 C   0  0  0  0  0  0  0  0  0  0  0  0
    2.7512   -0.0616    0.0000 C   0  0  0  0  0  0  0  0  0  0  0  0
    3.4656   -0.4741    0.0000 C   0  0  0  0  0  0  0  0  0  0  0  0
    3.4656   -1.2991    0.0000 C   0  0  0  0  0  0  0  0  0  0  0  0
    2.7512   -1.7116    0.0000 C   0  0  0  0  0  0  0  0  0  0  0  0
    2.7512   -2.5366    0.0000 N   0  0  0  0  0  0  0  0  0  0  0  0
    2.0837   -3.0215    0.0000 N   0  0  0  0  0  0  0  0  0  0  0  0
    2.3387   -3.8062    0.0000 C   0  0  0  0  0  0  0  0  0  0  0  0
    1.8538   -4.4736    0.0000 C   0  0  0  0  0  0  0  0  0  0  0  0
    1.3688   -5.1410    0.0000 C   0  0  0  0  0  0  0  0  0  0  0  0
    1.1863   -3.9887    0.0000 C   0  0  0  0  0  0  0  0  0  0  0  0
    2.5212   -4.9585    0.0000 C   0  0  0  0  0  0  0  0  0  0  0  0
    3.1637   -3.8062    0.0000 C   0  0  0  0  0  0  0  0  0  0  0  0
    3.4186   -3.0215    0.0000 C   0  0  0  0  0  0  0  0  0  0  0  0
    4.2032   -2.7666    0.0000 N   0  0  0  0  0  0  0  0  0  0  0  0
    4.8163   -3.3186    0.0000 C   0  0  0  0  0  0  0  0  0  0  0  0
    4.6448   -4.1256    0.0000 O   0  0  0  0  0  0  0  0  0  0  0  0
    5.6010   -3.0637    0.0000 N   0  0  0  0  0  0  0  0  0  0  0  0
    6.2140   -3.6157    0.0000 C   0  0  0  0  0  0  0  0  0  0  0  0
    6.9987   -3.3608    0.0000 C   0  0  0  0  0  0  0  0  0  0  0  0
    7.6118   -3.9128    0.0000 C   0  0  0  0  0  0  0  0  0  0  0  0
    7.4402   -4.7198    0.0000 C   0  0  0  0  0  0  0  0  0  0  0  0
    8.0533   -5.2718    0.0000 C   0  0  0  0  0  0  0  0  0  0  0  0
    8.8603   -5.1003    0.0000 C   0  0  0  0  0  0  0  0  0  0  0  0
    9.2728   -5.8148    0.0000 S   0  0  0  0  0  0  0  0  0  0  0  0
    8.7208   -6.4279    0.0000 N   0  0  0  0  0  0  0  0  0  0  0  0
    7.9671   -6.0923    0.0000 N   0  0  0  0  0  0  0  0  0  0  0  0
    6.6556   -4.9747    0.0000 C   0  0  0  0  0  0  0  0  0  0  0  0
    6.0425   -4.4227    0.0000 C   0  0  0  0  0  0  0  0  0  0  0  0
    2.0367   -1.2991    0.0000 C   0  0  0  0  0  0  0  0  0  0  0  0
    2.0367   -0.4741    0.0000 C   0  0  0  0  0  0  0  0  0  0  0  0
  1  2  1  0  0  0  0
  2  3  4  0  0  0  0
  3  4  4  0  0  0  0
  4  5  4  0  0  0  0
  5  6  1  0  0  0  0
  6  7  4  0  0  0  0
  7  8  4  0  0  0  0
  8  9  1  0  0  0  0
  9 10  1  0  0  0  0
  9 11  1  0  0  0  0
  9 12  1  0  0  0  0
  8 13  4  0  0  0  0
 13 14  4  0  0  0  0
  6 14  4  0  0  0  0
 14 15  1  0  0  0  0
 15 16  1  0  0  0  0
 16 17  2  0  0  0  0
 16 18  1  0  0  0  0
 18 19  1  0  0  0  0
 19 20  4  0  0  0  0
 20 21  4  0  0  0  0
 21 22  4  0  0  0  0
 22 23  1  0  0  0  0
 23 24  4  0  0  0  0
 24 25  4  0  0  0  0
 25 26  4  0  0  0  0
 26 27  4  0  0  0  0
 23 27  4  0  0  0  0
 22 28  4  0  0  0  0
 28 29  4  0  0  0  0
 19 29  4  0  0  0  0
  5 30  4  0  0  0  0
 30 31  4  0  0  0  0
  2 31  4  0  0  0  0
M  END
>  <CdId>
36

>  <Mol Weight>
432.55

>  <Formula>
C23H24N6OS

>  <Molecule ChEMBL ID>
CHEMBL2425151

>  <Molecule Max Phase>
None

>  <Molecular Weight>
432.55

>  <#RO5 Violations>
1

>  <AlogP>
5.64

>  <Compound Key>
22

>  <Standard Type>
IC50

>  <Standard Relation>
'>'

>  <Standard Value>
10000.0

>  <Standard Units>
nM

$$$$

  Mrv2114 03112311372D          

 33 36  0  0  0  0            999 V2000
    2.7512   -1.7116    0.0000 C   0  0  0  0  0  0  0  0  0  0  0  0
    2.7512   -2.5366    0.0000 C   0  0  0  0  0  0  0  0  0  0  0  0
    3.4656   -2.9491    0.0000 C   0  0  0  0  0  0  0  0  0  0  0  0
    3.4656   -3.7741    0.0000 C   0  0  0  0  0  0  0  0  0  0  0  0
    2.7512   -4.1866    0.0000 C   0  0  0  0  0  0  0  0  0  0  0  0
    2.7512   -5.0116    0.0000 N   0  0  0  0  0  0  0  0  0  0  0  0
    2.0837   -5.4965    0.0000 N   0  0  0  0  0  0  0  0  0  0  0  0
    2.3387   -6.2812    0.0000 C   0  0  0  0  0  0  0  0  0  0  0  0
    1.8538   -6.9486    0.0000 C   0  0  0  0  0  0  0  0  0  0  0  0
    1.3688   -7.6160    0.0000 C   0  0  0  0  0  0  0  0  0  0  0  0
    1.1863   -6.4637    0.0000 C   0  0  0  0  0  0  0  0  0  0  0  0
    2.5212   -7.4335    0.0000 C   0  0  0  0  0  0  0  0  0  0  0  0
    3.1637   -6.2812    0.0000 C   0  0  0  0  0  0  0  0  0  0  0  0
    3.4186   -5.4965    0.0000 C   0  0  0  0  0  0  0  0  0  0  0  0
    4.2032   -5.2416    0.0000 N   0  0  0  0  0  0  0  0  0  0  0  0
    4.8163   -5.7936    0.0000 C   0  0  0  0  0  0  0  0  0  0  0  0
    4.6448   -6.6006    0.0000 O   0  0  0  0  0  0  0  0  0  0  0  0
    5.6010   -5.5387    0.0000 N   0  0  0  0  0  0  0  0  0  0  0  0
    6.2140   -6.0907    0.0000 C   0  0  0  0  0  0  0  0  0  0  0  0
    6.9987   -5.8358    0.0000 C   0  0  0  0  0  0  0  0  0  0  0  0
    7.6118   -6.3878    0.0000 C   0  0  0  0  0  0  0  0  0  0  0  0
    7.4402   -7.1948    0.0000 C   0  0  0  0  0  0  0  0  0  0  0  0
    8.0533   -7.7468    0.0000 C   0  0  0  0  0  0  0  0  0  0  0  0
    8.8380   -7.4919    0.0000 C   0  0  0  0  0  0  0  0  0  0  0  0
    9.4510   -8.0439    0.0000 C   0  0  0  0  0  0  0  0  0  0  0  0
    9.2795   -8.8509    0.0000 C   0  0  0  0  0  0  0  0  0  0  0  0
    9.8926   -9.4029    0.0000 N   0  0  0  0  0  0  0  0  0  0  0  0
    8.4949   -9.1058    0.0000 N   0  0  0  0  0  0  0  0  0  0  0  0
    7.8818   -8.5538    0.0000 C   0  0  0  0  0  0  0  0  0  0  0  0
    6.6556   -7.4497    0.0000 C   0  0  0  0  0  0  0  0  0  0  0  0
    6.0425   -6.8977    0.0000 C   0  0  0  0  0  0  0  0  0  0  0  0
    2.0367   -3.7741    0.0000 C   0  0  0  0  0  0  0  0  0  0  0  0
    2.0367   -2.9491    0.0000 C   0  0  0  0  0  0  0  0  0  0  0  0
  1  2  1  0  0  0  0
  2  3  4  0  0  0  0
  3  4  4  0  0  0  0
  4  5  4  0  0  0  0
  5  6  1  0  0  0  0
  6  7  4  0  0  0  0
  7  8  4  0  0  0  0
  8  9  1  0  0  0  0
  9 10  1  0  0  0  0
  9 11  1  0  0  0  0
  9 12  1  0  0  0  0
  8 13  4  0  0  0  0
 13 14  4  0  0  0  0
  6 14  4  0  0  0  0
 14 15  1  0  0  0  0
 15 16  1  0  0  0  0
 16 17  2  0  0  0  0
 16 18  1  0  0  0  0
 18 19  1  0  0  0  0
 19 20  4  0  0  0  0
 20 21  4  0  0  0  0
 21 22  4  0  0  0  0
 22 23  1  0  0  0  0
 23 24  4  0  0  0  0
 24 25  4  0  0  0  0
 25 26  4  0  0  0  0
 26 27  1  0  0  0  0
 26 28  4  0  0  0  0
 28 29  4  0  0  0  0
 23 29  4  0  0  0  0
 22 30  4  0  0  0  0
 30 31  4  0  0  0  0
 19 31  4  0  0  0  0
  5 32  4  0  0  0  0
 32 33  4  0  0  0  0
  2 33  4  0  0  0  0
M  END
>  <CdId>
37

>  <Mol Weight>
440.551

>  <Formula>
C26H28N6O

>  <Molecule ChEMBL ID>
CHEMBL2425157

>  <Molecule Max Phase>
None

>  <Molecular Weight>
440.55

>  <#RO5 Violations>
1

>  <AlogP>
5.77

>  <Compound Key>
28

>  <Standard Type>
IC50

>  <Standard Relation>
'>'

>  <Standard Value>
10000.0

>  <Standard Units>
nM

$$$$

  Mrv2114 03112311372D          

 28 32  0  0  0  0            999 V2000
   -3.4774    2.6319    0.0000 Cl  0  0  0  0  0  0  0  0  0  0  0  0
   -3.3059    1.8249    0.0000 C   0  0  0  0  0  0  0  0  0  0  0  0
   -2.5213    1.5700    0.0000 C   0  0  0  0  0  0  0  0  0  0  0  0
   -2.3497    0.7630    0.0000 C   0  0  0  0  0  0  0  0  0  0  0  0
   -1.5651    0.5081    0.0000 C   0  0  0  0  0  0  0  0  0  0  0  0
   -0.8977    0.9930    0.0000 N   0  0  0  0  0  0  0  0  0  0  0  0
   -0.2302    0.5081    0.0000 C   0  0  0  0  0  0  0  0  0  0  0  0
    0.5544    0.7630    0.0000 C   0  0  0  0  0  0  0  0  0  0  0  0
    1.1675    0.2110    0.0000 S   0  0  0  0  0  0  0  0  0  0  0  0
    1.9521    0.4659    0.0000 C   0  0  0  0  0  0  0  0  0  0  0  0
    2.2070    1.2506    0.0000 N   0  0  0  0  0  0  0  0  0  0  0  0
    3.0320    1.2506    0.0000 N   0  0  0  0  0  0  0  0  0  0  0  0
    3.2870    0.4659    0.0000 C   0  0  0  0  0  0  0  0  0  0  0  0
    4.0716    0.2110    0.0000 C   0  0  0  0  0  0  0  0  0  0  0  0
    4.6847    0.7630    0.0000 C   0  0  0  0  0  0  0  0  0  0  0  0
    5.4693    0.5081    0.0000 C   0  0  0  0  0  0  0  0  0  0  0  0
    5.6408   -0.2989    0.0000 N   0  0  0  0  0  0  0  0  0  0  0  0
    5.0277   -0.8509    0.0000 C   0  0  0  0  0  0  0  0  0  0  0  0
    4.2431   -0.5960    0.0000 C   0  0  0  0  0  0  0  0  0  0  0  0
    2.6195   -0.0190    0.0000 N   0  0  0  0  0  0  0  0  0  0  0  0
    2.6195   -0.8440    0.0000 C   0  0  0  0  0  0  0  0  0  0  0  0
    3.0320   -1.5585    0.0000 C   0  0  0  0  0  0  0  0  0  0  0  0
    2.2070   -1.5585    0.0000 C   0  0  0  0  0  0  0  0  0  0  0  0
   -0.4852   -0.2765    0.0000 N   0  0  0  0  0  0  0  0  0  0  0  0
   -1.3102   -0.2765    0.0000 O   0  0  0  0  0  0  0  0  0  0  0  0
   -2.9628    0.2110    0.0000 C   0  0  0  0  0  0  0  0  0  0  0  0
   -3.7475    0.4659    0.0000 C   0  0  0  0  0  0  0  0  0  0  0  0
   -3.9190    1.2729    0.0000 N   0  0  0  0  0  0  0  0  0  0  0  0
  1  2  1  0  0  0  0
  2  3  4  0  0  0  0
  3  4  4  0  0  0  0
  4  5  1  0  0  0  0
  5  6  4  0  0  0  0
  6  7  4  0  0  0  0
  7  8  1  0  0  0  0
  8  9  1  0  0  0  0
  9 10  1  0  0  0  0
 10 11  4  0  0  0  0
 11 12  4  0  0  0  0
 12 13  4  0  0  0  0
 13 14  1  0  0  0  0
 14 15  4  0  0  0  0
 15 16  4  0  0  0  0
 16 17  4  0  0  0  0
 17 18  4  0  0  0  0
 18 19  4  0  0  0  0
 14 19  4  0  0  0  0
 13 20  4  0  0  0  0
 10 20  4  0  0  0  0
 20 21  1  0  0  0  0
 21 22  1  0  0  0  0
 22 23  1  0  0  0  0
 21 23  1  0  0  0  0
  7 24  4  0  0  0  0
 24 25  4  0  0  0  0
  5 25  4  0  0  0  0
  4 26  4  0  0  0  0
 26 27  4  0  0  0  0
 27 28  4  0  0  0  0
  2 28  4  0  0  0  0
M  END
>  <CdId>
38

>  <Mol Weight>
411.87

>  <Formula>
C18H14ClN7OS

>  <Molecule ChEMBL ID>
CHEMBL2069799

>  <Molecule Max Phase>
None

>  <Molecular Weight>
411.88

>  <#RO5 Violations>
0

>  <AlogP>
4.07

>  <Compound Key>
19

>  <Standard Type>
IC50

>  <Standard Relation>
'>'

>  <Standard Value>
20000.0

>  <Standard Units>
nM

$$$$

  Mrv2114 03112311372D          

 26 28  0  0  0  0            999 V2000
    0.0000   -2.4750    0.0000 O   0  0  0  0  0  0  0  0  0  0  0  0
    0.0000   -1.6500    0.0000 C   0  0  0  0  0  0  0  0  0  0  0  0
   -0.7145   -1.2375    0.0000 C   0  0  0  0  0  0  0  0  0  0  0  0
   -1.4289   -1.6500    0.0000 C   0  0  0  0  0  0  0  0  0  0  0  0
   -1.4289   -2.4750    0.0000 C   0  0  0  0  0  0  0  0  0  0  0  0
   -0.7615   -2.9599    0.0000 N   0  0  0  0  0  0  0  0  0  0  0  0
   -1.0164   -3.7445    0.0000 C   0  0  0  0  0  0  0  0  0  0  0  0
   -1.8414   -3.7445    0.0000 C   0  0  0  0  0  0  0  0  0  0  0  0
   -2.3264   -4.4120    0.0000 C   0  0  0  0  0  0  0  0  0  0  0  0
   -1.9908   -5.1657    0.0000 C   0  0  0  0  0  0  0  0  0  0  0  0
   -2.4757   -5.8331    0.0000 C   0  0  0  0  0  0  0  0  0  0  0  0
   -3.2962   -5.7469    0.0000 C   0  0  0  0  0  0  0  0  0  0  0  0
   -3.7811   -6.4143    0.0000 O   0  0  0  0  0  0  0  0  0  0  0  0
   -3.6318   -4.9932    0.0000 C   0  0  0  0  0  0  0  0  0  0  0  0
   -3.1468   -4.3257    0.0000 N   0  0  0  0  0  0  0  0  0  0  0  0
   -2.0964   -2.9599    0.0000 S   0  0  0  0  0  0  0  0  0  0  0  0
    0.7145   -1.2375    0.0000 N   0  0  0  0  0  0  0  0  0  0  0  0
    0.7145   -0.4125    0.0000 C   0  0  0  0  0  0  0  0  0  0  0  0
    0.0000    0.0000    0.0000 C   0  0  0  0  0  0  0  0  0  0  0  0
    0.0000    0.8250    0.0000 C   0  0  0  0  0  0  0  0  0  0  0  0
    0.7145    1.2375    0.0000 C   0  0  0  0  0  0  0  0  0  0  0  0
    1.4289    0.8250    0.0000 C   0  0  0  0  0  0  0  0  0  0  0  0
    1.4289    0.0000    0.0000 C   0  0  0  0  0  0  0  0  0  0  0  0
    2.1434   -0.4125    0.0000 C   0  0  0  0  0  0  0  0  0  0  0  0
    2.1434   -1.2375    0.0000 O   0  0  0  0  0  0  0  0  0  0  0  0
    2.8579    0.0000    0.0000 O   0  0  0  0  0  0  0  0  0  0  0  0
  1  2  2  0  0  0  0
  2  3  1  0  0  0  0
  3  4  1  0  0  0  0
  4  5  1  0  0  0  0
  5  6  4  0  0  0  0
  6  7  4  0  0  0  0
  7  8  4  0  0  0  0
  8  9  1  0  0  0  0
  9 10  4  0  0  0  0
 10 11  4  0  0  0  0
 11 12  4  0  0  0  0
 12 13  1  0  0  0  0
 12 14  4  0  0  0  0
 14 15  4  0  0  0  0
  9 15  4  0  0  0  0
  8 16  4  0  0  0  0
  5 16  4  0  0  0  0
  2 17  1  0  0  0  0
 17 18  1  0  0  0  0
 18 19  4  0  0  0  0
 19 20  4  0  0  0  0
 20 21  4  0  0  0  0
 21 22  4  0  0  0  0
 22 23  4  0  0  0  0
 18 23  4  0  0  0  0
 23 24  1  0  0  0  0
 24 25  2  0  0  0  0
 24 26  1  0  0  0  0
M  END
>  <CdId>
39

>  <Mol Weight>
369.4

>  <Formula>
C18H15N3O4S

>  <Molecule ChEMBL ID>
CHEMBL237247

>  <Molecule Max Phase>
None

>  <Molecular Weight>
369.4

>  <#RO5 Violations>
0

>  <AlogP>
3.18

>  <Compound Key>
2m

>  <Standard Type>
IC50

>  <Standard Relation>
'='

>  <Standard Value>
9300.0

>  <Standard Units>
nM

$$$$

  Mrv2114 03112311372D          

 40 45  0  0  0  0            999 V2000
    1.1809   -3.5477    0.0000 C   0  0  0  0  0  0  0  0  0  0  0  0
    1.4358   -2.7631    0.0000 N   0  0  0  0  0  0  0  0  0  0  0  0
    0.8838   -2.1500    0.0000 C   0  0  0  0  0  0  0  0  0  0  0  0
    0.0768   -2.3215    0.0000 O   0  0  0  0  0  0  0  0  0  0  0  0
    1.1387   -1.3654    0.0000 C   0  0  0  0  0  0  0  0  0  0  0  0
    0.6538   -0.6979    0.0000 C   0  0  0  0  0  0  0  0  0  0  0  0
   -0.1712   -0.6979    0.0000 C   0  0  0  0  0  0  0  0  0  0  0  0
   -0.5837   -1.4124    0.0000 C   0  0  0  0  0  0  0  0  0  0  0  0
   -1.4087   -1.4124    0.0000 C   0  0  0  0  0  0  0  0  0  0  0  0
   -1.8212   -0.6979    0.0000 C   0  0  0  0  0  0  0  0  0  0  0  0
   -2.6462   -0.6979    0.0000 F   0  0  0  0  0  0  0  0  0  0  0  0
   -1.4087    0.0165    0.0000 C   0  0  0  0  0  0  0  0  0  0  0  0
   -0.5837    0.0165    0.0000 C   0  0  0  0  0  0  0  0  0  0  0  0
    1.1387   -0.0305    0.0000 O   0  0  0  0  0  0  0  0  0  0  0  0
    1.9233   -0.2854    0.0000 C   0  0  0  0  0  0  0  0  0  0  0  0
    2.6378    0.1271    0.0000 C   0  0  0  0  0  0  0  0  0  0  0  0
    3.3523   -0.2854    0.0000 C   0  0  0  0  0  0  0  0  0  0  0  0
    3.3523   -1.1104    0.0000 C   0  0  0  0  0  0  0  0  0  0  0  0
    4.0668   -1.5229    0.0000 C   0  0  0  0  0  0  0  0  0  0  0  0
    4.7812   -1.1104    0.0000 C   0  0  0  0  0  0  0  0  0  0  0  0
    5.4957   -1.5229    0.0000 C   0  0  0  0  0  0  0  0  0  0  0  0
    6.2102   -1.1104    0.0000 C   0  0  0  0  0  0  0  0  0  0  0  0
    6.9246   -1.5229    0.0000 O   0  0  0  0  0  0  0  0  0  0  0  0
    6.2102   -0.2854    0.0000 N   0  0  0  0  0  0  0  0  0  0  0  0
    6.9246    0.1271    0.0000 C   0  0  0  0  0  0  0  0  0  0  0  0
    6.6425    0.9023    0.0000 C   0  0  0  0  0  0  0  0  0  0  0  0
    5.8300    1.0456    0.0000 N   0  0  0  0  0  0  0  0  0  0  0  0
    5.5478    1.8208    0.0000 C   0  0  0  0  0  0  0  0  0  0  0  0
    6.0781    2.4528    0.0000 C   0  0  0  0  0  0  0  0  0  0  0  0
    6.8906    2.3095    0.0000 C   0  0  0  0  0  0  0  0  0  0  0  0
    7.1728    1.5343    0.0000 N   0  0  0  0  0  0  0  0  0  0  0  0
    7.4549   -0.5049    0.0000 C   0  0  0  0  0  0  0  0  0  0  0  0
    7.7371    0.2703    0.0000 C   0  0  0  0  0  0  0  0  0  0  0  0
    5.4957   -2.3479    0.0000 C   0  0  0  0  0  0  0  0  0  0  0  0
    4.7812   -2.7604    0.0000 C   0  0  0  0  0  0  0  0  0  0  0  0
    4.0668   -2.3479    0.0000 C   0  0  0  0  0  0  0  0  0  0  0  0
    3.3523   -2.7604    0.0000 C   0  0  0  0  0  0  0  0  0  0  0  0
    2.6378   -1.5229    0.0000 C   0  0  0  0  0  0  0  0  0  0  0  0
    2.6378   -2.3479    0.0000 F   0  0  0  0  0  0  0  0  0  0  0  0
    1.9233   -1.1104    0.0000 C   0  0  0  0  0  0  0  0  0  0  0  0
  1  2  1  0  0  0  0
  2  3  1  0  0  0  0
  3  4  2  0  0  0  0
  3  5  1  0  0  0  0
  5  6  4  0  0  0  0
  6  7  1  0  0  0  0
  7  8  4  0  0  0  0
  8  9  4  0  0  0  0
  9 10  4  0  0  0  0
 10 11  1  0  0  0  0
 10 12  4  0  0  0  0
 12 13  4  0  0  0  0
  7 13  4  0  0  0  0
  6 14  4  0  0  0  0
 14 15  4  0  0  0  0
 15 16  4  0  0  0  0
 16 17  4  0  0  0  0
 17 18  4  0  0  0  0
 18 19  1  0  0  0  0
 19 20  4  0  0  0  0
 20 21  4  0  0  0  0
 21 22  1  0  0  0  0
 22 23  2  0  0  0  0
 22 24  1  0  0  0  0
 24 25  1  0  0  0  0
 25 26  1  0  0  0  0
 26 27  4  0  0  0  0
 27 28  4  0  0  0  0
 28 29  4  0  0  0  0
 29 30  4  0  0  0  0
 30 31  4  0  0  0  0
 26 31  4  0  0  0  0
 25 32  1  0  0  0  0
 32 33  1  0  0  0  0
 25 33  1  0  0  0  0
 21 34  4  0  0  0  0
 34 35  4  0  0  0  0
 35 36  4  0  0  0  0
 19 36  4  0  0  0  0
 36 37  1  0  0  0  0
 18 38  4  0  0  0  0
 38 39  1  0  0  0  0
 38 40  4  0  0  0  0
  5 40  4  0  0  0  0
 15 40  4  0  0  0  0
M  END
>  <CdId>
40

>  <Mol Weight>
538.555

>  <Formula>
C31H24F2N4O3

>  <Molecule ChEMBL ID>
CHEMBL4093031

>  <Molecule Name>
BMS-929075

>  <Molecule Max Phase>
1

>  <Molecular Weight>
538.55

>  <#RO5 Violations>
2

>  <AlogP>
5.92

>  <Compound Key>
37; BMS-929075

>  <Standard Type>
IC50

>  <Standard Relation>
'='

>  <Standard Value>
6700.0

>  <Standard Units>
nM

$$$$

  Mrv2114 03112311372D          

 39 44  0  0  0  0            999 V2000
    1.1809   -3.5477    0.0000 C   0  0  0  0  0  0  0  0  0  0  0  0
    1.4358   -2.7631    0.0000 N   0  0  0  0  0  0  0  0  0  0  0  0
    0.8838   -2.1500    0.0000 C   0  0  0  0  0  0  0  0  0  0  0  0
    0.0768   -2.3215    0.0000 O   0  0  0  0  0  0  0  0  0  0  0  0
    1.1387   -1.3654    0.0000 C   0  0  0  0  0  0  0  0  0  0  0  0
    0.6538   -0.6979    0.0000 C   0  0  0  0  0  0  0  0  0  0  0  0
   -0.1712   -0.6979    0.0000 C   0  0  0  0  0  0  0  0  0  0  0  0
   -0.5837   -1.4124    0.0000 C   0  0  0  0  0  0  0  0  0  0  0  0
   -1.4087   -1.4124    0.0000 C   0  0  0  0  0  0  0  0  0  0  0  0
   -1.8212   -0.6979    0.0000 C   0  0  0  0  0  0  0  0  0  0  0  0
   -2.6462   -0.6979    0.0000 F   0  0  0  0  0  0  0  0  0  0  0  0
   -1.4087    0.0165    0.0000 C   0  0  0  0  0  0  0  0  0  0  0  0
   -0.5837    0.0165    0.0000 C   0  0  0  0  0  0  0  0  0  0  0  0
    1.1387   -0.0305    0.0000 O   0  0  0  0  0  0  0  0  0  0  0  0
    1.9233   -0.2854    0.0000 C   0  0  0  0  0  0  0  0  0  0  0  0
    2.6378    0.1271    0.0000 C   0  0  0  0  0  0  0  0  0  0  0  0
    3.3523   -0.2854    0.0000 C   0  0  0  0  0  0  0  0  0  0  0  0
    3.3523   -1.1104    0.0000 C   0  0  0  0  0  0  0  0  0  0  0  0
    4.0668   -1.5229    0.0000 C   0  0  0  0  0  0  0  0  0  0  0  0
    4.7812   -1.1104    0.0000 C   0  0  0  0  0  0  0  0  0  0  0  0
    5.4957   -1.5229    0.0000 C   0  0  0  0  0  0  0  0  0  0  0  0
    6.2102   -1.1104    0.0000 C   0  0  0  0  0  0  0  0  0  0  0  0
    6.9246   -1.5229    0.0000 O   0  0  0  0  0  0  0  0  0  0  0  0
    6.2102   -0.2854    0.0000 N   0  0  0  0  0  0  0  0  0  0  0  0
    6.9246    0.1271    0.0000 C   0  0  0  0  0  0  0  0  0  0  0  0
    6.6425    0.9023    0.0000 C   0  0  0  0  0  0  0  0  0  0  0  0
    5.8300    1.0456    0.0000 C   0  0  0  0  0  0  0  0  0  0  0  0
    5.5478    1.8208    0.0000 C   0  0  0  0  0  0  0  0  0  0  0  0
    6.0781    2.4528    0.0000 C   0  0  0  0  0  0  0  0  0  0  0  0
    6.8906    2.3095    0.0000 C   0  0  0  0  0  0  0  0  0  0  0  0
    7.1728    1.5343    0.0000 C   0  0  0  0  0  0  0  0  0  0  0  0
    7.4549   -0.5049    0.0000 C   0  0  0  0  0  0  0  0  0  0  0  0
    7.7371    0.2703    0.0000 C   0  0  0  0  0  0  0  0  0  0  0  0
    5.4957   -2.3479    0.0000 C   0  0  0  0  0  0  0  0  0  0  0  0
    4.7812   -2.7604    0.0000 C   0  0  0  0  0  0  0  0  0  0  0  0
    4.0668   -2.3479    0.0000 C   0  0  0  0  0  0  0  0  0  0  0  0
    3.3523   -2.7604    0.0000 C   0  0  0  0  0  0  0  0  0  0  0  0
    2.6378   -1.5229    0.0000 C   0  0  0  0  0  0  0  0  0  0  0  0
    1.9233   -1.1104    0.0000 C   0  0  0  0  0  0  0  0  0  0  0  0
  1  2  1  0  0  0  0
  2  3  1  0  0  0  0
  3  4  2  0  0  0  0
  3  5  1  0  0  0  0
  5  6  4  0  0  0  0
  6  7  1  0  0  0  0
  7  8  4  0  0  0  0
  8  9  4  0  0  0  0
  9 10  4  0  0  0  0
 10 11  1  0  0  0  0
 10 12  4  0  0  0  0
 12 13  4  0  0  0  0
  7 13  4  0  0  0  0
  6 14  4  0  0  0  0
 14 15  4  0  0  0  0
 15 16  4  0  0  0  0
 16 17  4  0  0  0  0
 17 18  4  0  0  0  0
 18 19  1  0  0  0  0
 19 20  4  0  0  0  0
 20 21  4  0  0  0  0
 21 22  1  0  0  0  0
 22 23  2  0  0  0  0
 22 24  1  0  0  0  0
 24 25  1  0  0  0  0
 25 26  1  0  0  0  0
 26 27  4  0  0  0  0
 27 28  4  0  0  0  0
 28 29  4  0  0  0  0
 29 30  4  0  0  0  0
 30 31  4  0  0  0  0
 26 31  4  0  0  0  0
 25 32  1  0  0  0  0
 32 33  1  0  0  0  0
 25 33  1  0  0  0  0
 21 34  4  0  0  0  0
 34 35  4  0  0  0  0
 35 36  4  0  0  0  0
 19 36  4  0  0  0  0
 36 37  1  0  0  0  0
 18 38  4  0  0  0  0
 38 39  4  0  0  0  0
  5 39  4  0  0  0  0
 15 39  4  0  0  0  0
M  END
>  <CdId>
41

>  <Mol Weight>
518.588

>  <Formula>
C33H27FN2O3

>  <Molecule ChEMBL ID>
CHEMBL4088517

>  <Molecule Max Phase>
None

>  <Molecular Weight>
518.59

>  <#RO5 Violations>
2

>  <AlogP>
6.99

>  <Compound Key>
28

>  <Standard Type>
IC50

>  <Standard Relation>
'='

>  <Standard Value>
1500.0

>  <Standard Units>
nM

$$$$

  Mrv2114 03112311372D          

 23 25  0  0  0  0            999 V2000
   -3.5724   -2.8875    0.0000 C   0  0  0  0  0  0  0  0  0  0  0  0
   -2.8579   -2.4750    0.0000 C   0  0  0  0  0  0  0  0  0  0  0  0
   -2.1434   -2.8875    0.0000 N   0  0  0  0  0  0  0  0  0  0  0  0
   -1.4289   -2.4750    0.0000 C   0  0  0  0  0  0  0  0  0  0  0  0
   -0.7145   -2.8875    0.0000 C   0  0  0  0  0  0  0  0  0  0  0  0
    0.0000   -2.4750    0.0000 C   0  0  0  0  0  0  0  0  0  0  0  0
    0.7145   -2.8875    0.0000 C   0  0  0  0  0  0  0  0  0  0  0  0
    1.4289   -2.4750    0.0000 N   0  0  0  0  0  0  0  0  0  0  0  0
    1.4289   -1.6500    0.0000 C   0  0  0  0  0  0  0  0  0  0  0  0
    0.7145   -1.2375    0.0000 C   0  0  0  0  0  0  0  0  0  0  0  0
    0.7145   -0.4125    0.0000 C   0  0  0  0  0  0  0  0  0  0  0  0
    1.4289    0.0000    0.0000 N   0  0  0  0  0  0  0  0  0  0  0  0
    2.1434   -0.4125    0.0000 C   0  0  0  0  0  0  0  0  0  0  0  0
    2.8579    0.0000    0.0000 C   0  0  0  0  0  0  0  0  0  0  0  0
    3.5724   -0.4125    0.0000 C   0  0  0  0  0  0  0  0  0  0  0  0
    4.2868   -0.0000    0.0000 Cl  0  0  0  0  0  0  0  0  0  0  0  0
    3.5724   -1.2375    0.0000 C   0  0  0  0  0  0  0  0  0  0  0  0
    2.8579   -1.6500    0.0000 C   0  0  0  0  0  0  0  0  0  0  0  0
    2.1434   -1.2375    0.0000 C   0  0  0  0  0  0  0  0  0  0  0  0
    0.7145   -3.7125    0.0000 C   0  0  0  0  0  0  0  0  0  0  0  0
    0.0000   -4.1250    0.0000 C   0  0  0  0  0  0  0  0  0  0  0  0
   -0.7145   -3.7125    0.0000 C   0  0  0  0  0  0  0  0  0  0  0  0
   -1.4289   -4.1250    0.0000 O   0  0  0  0  0  0  0  0  0  0  0  0
  1  2  1  0  0  0  0
  2  3  1  0  0  0  0
  3  4  1  0  0  0  0
  4  5  1  0  0  0  0
  5  6  4  0  0  0  0
  6  7  4  0  0  0  0
  7  8  1  0  0  0  0
  8  9  1  0  0  0  0
  9 10  4  0  0  0  0
 10 11  4  0  0  0  0
 11 12  4  0  0  0  0
 12 13  4  0  0  0  0
 13 14  4  0  0  0  0
 14 15  4  0  0  0  0
 15 16  1  0  0  0  0
 15 17  4  0  0  0  0
 17 18  4  0  0  0  0
 18 19  4  0  0  0  0
  9 19  4  0  0  0  0
 13 19  4  0  0  0  0
  7 20  4  0  0  0  0
 20 21  4  0  0  0  0
 21 22  4  0  0  0  0
  5 22  4  0  0  0  0
 22 23  1  0  0  0  0
M  END
>  <CdId>
42

>  <Mol Weight>
327.81

>  <Formula>
C18H18ClN3O

>  <Molecule ChEMBL ID>
CHEMBL1235

>  <Molecule Name>
DESETHYL AMODIAQUINE

>  <Molecule Max Phase>
None

>  <Molecular Weight>
327.82

>  <#RO5 Violations>
0

>  <AlogP>
4.45

>  <Compound Key>
desethylamodiaquine

>  <Standard Type>
IC50

>  <Standard Relation>
'='

>  <Standard Value>
20000.0

>  <Standard Units>
nM

$$$$

  Mrv2114 03112311372D          

 25 28  0  0  0  0            999 V2000
    0.5269   -3.0225    0.0000 C   0  0  0  0  0  0  0  0  0  0  0  0
   -0.0862   -2.4705    0.0000 C   0  0  0  0  0  0  0  0  0  0  0  0
   -0.8932   -2.6420    0.0000 C   0  0  0  0  0  0  0  0  0  0  0  0
   -1.3057   -1.9275    0.0000 C   0  0  0  0  0  0  0  0  0  0  0  0
   -2.1262   -1.8413    0.0000 O   0  0  0  0  0  0  0  0  0  0  0  0
   -2.6111   -2.5087    0.0000 C   0  0  0  0  0  0  0  0  0  0  0  0
   -3.4316   -2.4225    0.0000 C   0  0  0  0  0  0  0  0  0  0  0  0
   -3.9165   -3.0899    0.0000 N   0  0  0  0  0  0  0  0  0  0  0  0
   -3.5810   -3.8436    0.0000 C   0  0  0  0  0  0  0  0  0  0  0  0
   -4.0659   -4.5111    0.0000 C   0  0  0  0  0  0  0  0  0  0  0  0
   -4.8864   -4.4248    0.0000 O   0  0  0  0  0  0  0  0  0  0  0  0
   -5.2219   -3.6711    0.0000 C   0  0  0  0  0  0  0  0  0  0  0  0
   -4.7370   -3.0037    0.0000 C   0  0  0  0  0  0  0  0  0  0  0  0
   -0.7537   -1.3144    0.0000 N   0  0  0  0  0  0  0  0  0  0  0  0
    0.0000   -1.6500    0.0000 N   0  0  0  0  0  0  0  0  0  0  0  0
    0.7145   -1.2375    0.0000 C   0  0  0  0  0  0  0  0  0  0  0  0
    0.7145   -0.4125    0.0000 C   0  0  0  0  0  0  0  0  0  0  0  0
    1.4289    0.0000    0.0000 C   0  0  0  0  0  0  0  0  0  0  0  0
    2.1434   -0.4125    0.0000 C   0  0  0  0  0  0  0  0  0  0  0  0
    2.8579    0.0000    0.0000 C   0  0  0  0  0  0  0  0  0  0  0  0
    3.5724   -0.4125    0.0000 C   0  0  0  0  0  0  0  0  0  0  0  0
    3.5724   -1.2375    0.0000 C   0  0  0  0  0  0  0  0  0  0  0  0
    2.8579   -1.6500    0.0000 C   0  0  0  0  0  0  0  0  0  0  0  0
    2.1434   -1.2375    0.0000 C   0  0  0  0  0  0  0  0  0  0  0  0
    1.4289   -1.6500    0.0000 C   0  0  0  0  0  0  0  0  0  0  0  0
  1  2  1  0  0  0  0
  2  3  4  0  0  0  0
  3  4  4  0  0  0  0
  4  5  1  0  0  0  0
  5  6  1  0  0  0  0
  6  7  1  0  0  0  0
  7  8  1  0  0  0  0
  8  9  1  0  0  0  0
  9 10  1  0  0  0  0
 10 11  1  0  0  0  0
 11 12  1  0  0  0  0
 12 13  1  0  0  0  0
  8 13  1  0  0  0  0
  4 14  4  0  0  0  0
 14 15  4  0  0  0  0
  2 15  4  0  0  0  0
 15 16  1  0  0  0  0
 16 17  4  0  0  0  0
 17 18  4  0  0  0  0
 18 19  4  0  0  0  0
 19 20  4  0  0  0  0
 20 21  4  0  0  0  0
 21 22  4  0  0  0  0
 22 23  4  0  0  0  0
 23 24  4  0  0  0  0
 19 24  4  0  0  0  0
 24 25  4  0  0  0  0
 16 25  4  0  0  0  0
M  END
>  <CdId>
43

>  <Mol Weight>
337.423

>  <Formula>
C20H23N3O2

>  <Molecule ChEMBL ID>
CHEMBL2170062

>  <Molecule Max Phase>
None

>  <Molecular Weight>
337.42

>  <#RO5 Violations>
0

>  <AlogP>
3.04

>  <Compound Key>
28, S1RA, E-52862

>  <Standard Type>
IC50

>  <Standard Relation>
'>'

>  <Standard Value>
10000.0

>  <Standard Units>
nM

$$$$

  Mrv2114 03112311372D          

 26 28  0  0  1  0            999 V2000
    3.2789    2.8875    0.0000 C   0  0  0  0  0  0  0  0  0  0  0  0
    3.2789    2.0625    0.0000 S   0  0  0  0  0  0  0  0  0  0  0  0
    2.4539    2.0625    0.0000 O   0  0  0  0  0  0  0  0  0  0  0  0
    4.1039    2.0625    0.0000 O   0  0  0  0  0  0  0  0  0  0  0  0
    3.2789    1.2375    0.0000 C   0  0  0  0  0  0  0  0  0  0  0  0
    3.9934    0.8250    0.0000 C   0  0  0  0  0  0  0  0  0  0  0  0
    3.9934    0.0000    0.0000 C   0  0  0  0  0  0  0  0  0  0  0  0
    3.2789   -0.4125    0.0000 C   0  0  0  0  0  0  0  0  0  0  0  0
    3.2789   -1.2375    0.0000 O   0  0  0  0  0  0  0  0  0  0  0  0
    3.9934   -1.6500    0.0000 C   0  0  0  0  0  0  0  0  0  0  0  0
    4.7079   -1.2375    0.0000 C   0  0  0  0  0  0  0  0  0  0  0  0
    5.4223   -1.6500    0.0000 C   0  0  0  0  0  0  0  0  0  0  0  0
    6.1368   -1.2375    0.0000 F   0  0  0  0  0  0  0  0  0  0  0  0
    5.4223   -2.4750    0.0000 C   0  0  0  0  0  0  0  0  0  0  0  0
    4.7079   -2.8875    0.0000 C   0  0  0  0  0  0  0  0  0  0  0  0
    4.7079   -3.7125    0.0000 C   0  0  0  0  0  0  0  0  0  0  0  0
    4.7079   -4.5375    0.0000 N   0  0  0  0  0  0  0  0  0  0  0  0
    3.9934   -2.4750    0.0000 C   0  0  0  0  0  0  0  0  0  0  0  0
    2.5645    0.0000    0.0000 C   0  0  0  0  0  0  0  0  0  0  0  0
    2.5645    0.8250    0.0000 C   0  0  0  0  0  0  0  0  0  0  0  0
    1.7798    1.0799    0.0000 C   0  0  2  0  0  0  0  0  0  0  0  0
    1.5249    1.8646    0.0000 O   0  0  0  0  0  0  0  0  0  0  0  0
    1.2949    0.4125    0.0000 C   0  0  0  0  0  0  0  0  0  0  0  0
    0.6818    0.9645    0.0000 F   0  0  0  0  0  0  0  0  0  0  0  0
    0.6818   -0.1395    0.0000 F   0  0  0  0  0  0  0  0  0  0  0  0
    1.7798   -0.2549    0.0000 C   0  0  0  0  0  0  0  0  0  0  0  0
  1  2  1  0  0  0  0
  2  3  2  0  0  0  0
  2  4  2  0  0  0  0
  2  5  1  0  0  0  0
  5  6  4  0  0  0  0
  6  7  4  0  0  0  0
  7  8  4  0  0  0  0
  8  9  1  0  0  0  0
  9 10  1  0  0  0  0
 10 11  4  0  0  0  0
 11 12  4  0  0  0  0
 12 13  1  0  0  0  0
 12 14  4  0  0  0  0
 14 15  4  0  0  0  0
 15 16  1  0  0  0  0
 16 17  3  0  0  0  0
 15 18  4  0  0  0  0
 10 18  4  0  0  0  0
  8 19  4  0  0  0  0
 19 20  4  0  0  0  0
  5 20  4  0  0  0  0
 21 20  1  0  0  0  0
 21 22  1  1  0  0  0
 21 23  1  0  0  0  0
 23 24  1  0  0  0  0
 23 25  1  0  0  0  0
 23 26  1  0  0  0  0
 19 26  1  0  0  0  0
M  END
>  <CdId>
44

>  <Mol Weight>
383.34

>  <Formula>
C17H12F3NO4S

>  <Molecule ChEMBL ID>
CHEMBL4173075

>  <Molecule Max Phase>
None

>  <Molecular Weight>
383.35

>  <#RO5 Violations>
0

>  <AlogP>
3.12

>  <Compound Key>
(S)-10i

>  <Standard Type>
IC50

>  <Standard Relation>
'>'

>  <Standard Value>
50000.0

>  <Standard Units>
nM

$$$$

  Mrv2114 03112311372D          

 39 43  0  0  1  0            999 V2000
   -7.1275    1.4288    0.0000 C   0  0  0  0  0  0  0  0  0  0  0  0
   -6.3070    1.5150    0.0000 C   0  0  0  0  0  0  0  0  0  0  0  0
   -5.8945    2.2295    0.0000 N   0  0  0  0  0  0  0  0  0  0  0  0
   -5.0875    2.0580    0.0000 C   0  0  0  0  0  0  0  0  0  0  0  0
   -5.0013    1.2375    0.0000 N   0  0  0  0  0  0  0  0  0  0  0  0
   -4.2868    0.8250    0.0000 C   0  0  0  0  0  0  0  0  0  0  0  0
   -3.5724    1.2375    0.0000 C   0  0  0  0  0  0  0  0  0  0  0  0
   -2.8579    0.8250    0.0000 C   0  0  0  0  0  0  0  0  0  0  0  0
   -2.1434    1.2375    0.0000 Cl  0  0  0  0  0  0  0  0  0  0  0  0
   -2.8579    0.0000    0.0000 C   0  0  0  0  0  0  0  0  0  0  0  0
   -2.1434   -0.4125    0.0000 C   0  0  0  0  0  0  0  0  0  0  0  0
   -2.1434   -1.2375    0.0000 O   0  0  0  0  0  0  0  0  0  0  0  0
   -1.4289    0.0000    0.0000 N   0  0  0  0  0  0  0  0  0  0  0  0
   -0.7145   -0.4125    0.0000 C   0  0  0  0  0  0  0  0  0  0  0  0
    0.0000    0.0000    0.0000 C   0  0  1  0  0  0  0  0  0  0  0  0
    0.0000    0.8250    0.0000 C   0  0  0  0  0  0  0  0  0  0  0  0
   -0.7145    1.2375    0.0000 C   0  0  0  0  0  0  0  0  0  0  0  0
   -0.7145    2.0625    0.0000 C   0  0  0  0  0  0  0  0  0  0  0  0
    0.0000    2.4750    0.0000 C   0  0  0  0  0  0  0  0  0  0  0  0
    0.7145    2.0625    0.0000 C   0  0  0  0  0  0  0  0  0  0  0  0
    1.4289    2.4750    0.0000 F   0  0  0  0  0  0  0  0  0  0  0  0
    0.7145    1.2375    0.0000 C   0  0  0  0  0  0  0  0  0  0  0  0
    0.7145   -0.4125    0.0000 C   0  0  0  0  0  0  0  0  0  0  0  0
    1.4289    0.0000    0.0000 N   0  0  0  0  0  0  0  0  0  0  0  0
    2.1434   -0.4125    0.0000 C   0  0  0  0  0  0  0  0  0  0  0  0
    2.8579    0.0000    0.0000 C   0  0  0  0  0  0  0  0  0  0  0  0
    2.8579    0.8250    0.0000 F   0  0  0  0  0  0  0  0  0  0  0  0
    3.5724   -0.4125    0.0000 C   0  0  0  0  0  0  0  0  0  0  0  0
    3.5724   -1.2375    0.0000 C   0  0  0  0  0  0  0  0  0  0  0  0
    2.8579   -1.6500    0.0000 C   0  0  0  0  0  0  0  0  0  0  0  0
    2.8579   -2.4750    0.0000 C   0  0  0  0  0  0  0  0  0  0  0  0
    2.1434   -1.2375    0.0000 C   0  0  0  0  0  0  0  0  0  0  0  0
    1.4289   -1.6500    0.0000 C   0  0  0  0  0  0  0  0  0  0  0  0
    1.4289   -2.4750    0.0000 O   0  0  0  0  0  0  0  0  0  0  0  0
    0.7145   -1.2375    0.0000 N   0  0  0  0  0  0  0  0  0  0  0  0
   -3.5724   -0.4125    0.0000 C   0  0  0  0  0  0  0  0  0  0  0  0
   -3.5724   -1.2375    0.0000 Cl  0  0  0  0  0  0  0  0  0  0  0  0
   -4.2868    0.0000    0.0000 C   0  0  0  0  0  0  0  0  0  0  0  0
   -5.7550    0.9019    0.0000 N   0  0  0  0  0  0  0  0  0  0  0  0
  1  2  1  0  0  0  0
  2  3  4  0  0  0  0
  3  4  4  0  0  0  0
  4  5  4  0  0  0  0
  5  6  1  0  0  0  0
  6  7  4  0  0  0  0
  7  8  4  0  0  0  0
  8  9  1  0  0  0  0
  8 10  4  0  0  0  0
 10 11  1  0  0  0  0
 11 12  2  0  0  0  0
 11 13  1  0  0  0  0
 13 14  1  0  0  0  0
 15 14  1  1  0  0  0
 15 16  1  0  0  0  0
 16 17  4  0  0  0  0
 17 18  4  0  0  0  0
 18 19  4  0  0  0  0
 19 20  4  0  0  0  0
 20 21  1  0  0  0  0
 20 22  4  0  0  0  0
 16 22  4  0  0  0  0
 15 23  1  0  0  0  0
 23 24  4  0  0  0  0
 24 25  4  0  0  0  0
 25 26  4  0  0  0  0
 26 27  1  0  0  0  0
 26 28  4  0  0  0  0
 28 29  4  0  0  0  0
 29 30  4  0  0  0  0
 30 31  1  0  0  0  0
 30 32  4  0  0  0  0
 25 32  4  0  0  0  0
 32 33  4  0  0  0  0
 33 34  2  0  0  0  0
 33 35  4  0  0  0  0
 23 35  4  0  0  0  0
 10 36  4  0  0  0  0
 36 37  1  0  0  0  0
 36 38  4  0  0  0  0
  6 38  4  0  0  0  0
  5 39  4  0  0  0  0
  2 39  4  0  0  0  0
M  STY  1   1 DAT
M  SAL   1  1  35
M  SDT   1 MRV_IMPLICIT_H                                        
M  SDD   1     0.0000    0.0000    DR    ALL  0       0  
M  SED   1 IMPL_H1
M  END
>  <CdId>
45

>  <Mol Weight>
569.39

>  <Formula>
C27H20Cl2F2N6O2

>  <Molecule ChEMBL ID>
CHEMBL3627899

>  <Molecule Max Phase>
None

>  <Molecular Weight>
569.4

>  <#RO5 Violations>
2

>  <AlogP>
5.27

>  <Compound Key>
28

>  <Standard Type>
IC50

>  <Standard Relation>
'='

>  <Standard Value>
24400.0

>  <Standard Units>
nM

$$$$

  Mrv2114 03112311372D          

 26 27  0  0  0  0            999 V2000
   -4.0010   -0.7590    0.0000 C   0  0  0  0  0  0  0  0  0  0  0  0
   -3.2866   -0.3465    0.0000 C   0  0  0  0  0  0  0  0  0  0  0  0
   -2.5721   -0.7590    0.0000 N   0  0  0  0  0  0  0  0  0  0  0  0
   -2.5721   -1.5840    0.0000 C   0  0  0  0  0  0  0  0  0  0  0  0
   -3.2866   -1.9965    0.0000 C   0  0  0  0  0  0  0  0  0  0  0  0
   -1.8576   -0.3465    0.0000 C   0  0  0  0  0  0  0  0  0  0  0  0
   -1.1432   -0.7590    0.0000 C   0  0  0  0  0  0  0  0  0  0  0  0
   -0.4287   -0.3465    0.0000 C   0  0  0  0  0  0  0  0  0  0  0  0
    0.2858   -0.7590    0.0000 C   0  0  0  0  0  0  0  0  0  0  0  0
    1.0003   -0.3465    0.0000 N   0  0  0  0  0  0  0  0  0  0  0  0
    1.0003    0.4785    0.0000 C   0  0  0  0  0  0  0  0  0  0  0  0
    0.2858    0.8910    0.0000 C   0  0  0  0  0  0  0  0  0  0  0  0
    0.2858    1.7160    0.0000 C   0  0  0  0  0  0  0  0  0  0  0  0
    1.0003    2.1285    0.0000 N   0  0  0  0  0  0  0  0  0  0  0  0
    1.7147    1.7160    0.0000 C   0  0  0  0  0  0  0  0  0  0  0  0
    2.4292    2.1285    0.0000 C   0  0  0  0  0  0  0  0  0  0  0  0
    3.1437    1.7160    0.0000 C   0  0  0  0  0  0  0  0  0  0  0  0
    3.8581    2.1285    0.0000 Cl  0  0  0  0  0  0  0  0  0  0  0  0
    3.1437    0.8910    0.0000 C   0  0  0  0  0  0  0  0  0  0  0  0
    2.4292    0.4785    0.0000 C   0  0  0  0  0  0  0  0  0  0  0  0
    1.7147    0.8910    0.0000 C   0  0  0  0  0  0  0  0  0  0  0  0
    0.2858   -1.5840    0.0000 C   0  0  0  0  0  0  0  0  0  0  0  0
   -0.4287   -1.9965    0.0000 C   0  0  0  0  0  0  0  0  0  0  0  0
   -1.1432   -1.5840    0.0000 C   0  0  0  0  0  0  0  0  0  0  0  0
   -1.8576   -1.9965    0.0000 O   0  0  0  0  0  0  0  0  0  0  0  0
    5.8617    0.0000    0.0000 Cl  0  0  0  0  0  0  0  0  0  0  0  0
  1  2  1  0  0  0  0
  2  3  1  0  0  0  0
  3  4  1  0  0  0  0
  4  5  1  0  0  0  0
  3  6  1  0  0  0  0
  6  7  1  0  0  0  0
  7  8  4  0  0  0  0
  8  9  4  0  0  0  0
  9 10  1  0  0  0  0
 10 11  1  0  0  0  0
 11 12  4  0  0  0  0
 12 13  4  0  0  0  0
 13 14  4  0  0  0  0
 14 15  4  0  0  0  0
 15 16  4  0  0  0  0
 16 17  4  0  0  0  0
 17 18  1  0  0  0  0
 17 19  4  0  0  0  0
 19 20  4  0  0  0  0
 20 21  4  0  0  0  0
 11 21  4  0  0  0  0
 15 21  4  0  0  0  0
  9 22  4  0  0  0  0
 22 23  4  0  0  0  0
 23 24  4  0  0  0  0
  7 24  4  0  0  0  0
 24 25  1  0  0  0  0
M  END
>  <CdId>
46

>  <Mol Weight>
392.32

>  <Formula>
C20H23Cl2N3O

>  <Molecule ChEMBL ID>
CHEMBL1630

>  <Molecule Name>
AMODIAQUINE HYDROCHLORIDE

>  <Molecule Max Phase>
None

>  <Molecular Weight>
392.33

>  <#RO5 Violations>
1

>  <AlogP>
5.18

>  <Compound Key>
1b

>  <Standard Type>
IC50

>  <Standard Relation>
'='

>  <Standard Value>
2700.0

>  <Standard Units>
nM

$$$$

  Mrv2114 03112311372D          

 32 35  0  0  0  0            999 V2000
    2.7512    0.7634    0.0000 C   0  0  0  0  0  0  0  0  0  0  0  0
    2.7512   -0.0616    0.0000 C   0  0  0  0  0  0  0  0  0  0  0  0
    3.4656   -0.4741    0.0000 C   0  0  0  0  0  0  0  0  0  0  0  0
    3.4656   -1.2991    0.0000 C   0  0  0  0  0  0  0  0  0  0  0  0
    2.7512   -1.7116    0.0000 C   0  0  0  0  0  0  0  0  0  0  0  0
    2.7512   -2.5366    0.0000 N   0  0  0  0  0  0  0  0  0  0  0  0
    2.0837   -3.0215    0.0000 N   0  0  0  0  0  0  0  0  0  0  0  0
    2.3387   -3.8062    0.0000 C   0  0  0  0  0  0  0  0  0  0  0  0
    1.8538   -4.4736    0.0000 C   0  0  0  0  0  0  0  0  0  0  0  0
    1.3688   -5.1410    0.0000 C   0  0  0  0  0  0  0  0  0  0  0  0
    1.1863   -3.9887    0.0000 C   0  0  0  0  0  0  0  0  0  0  0  0
    2.5212   -4.9585    0.0000 C   0  0  0  0  0  0  0  0  0  0  0  0
    3.1637   -3.8062    0.0000 C   0  0  0  0  0  0  0  0  0  0  0  0
    3.4186   -3.0215    0.0000 C   0  0  0  0  0  0  0  0  0  0  0  0
    4.2032   -2.7666    0.0000 N   0  0  0  0  0  0  0  0  0  0  0  0
    4.8163   -3.3186    0.0000 C   0  0  0  0  0  0  0  0  0  0  0  0
    4.6448   -4.1256    0.0000 O   0  0  0  0  0  0  0  0  0  0  0  0
    5.6010   -3.0637    0.0000 N   0  0  0  0  0  0  0  0  0  0  0  0
    6.2140   -3.6157    0.0000 C   0  0  0  0  0  0  0  0  0  0  0  0
    6.9987   -3.3608    0.0000 C   0  0  0  0  0  0  0  0  0  0  0  0
    7.6118   -3.9128    0.0000 C   0  0  0  0  0  0  0  0  0  0  0  0
    7.4402   -4.7198    0.0000 C   0  0  0  0  0  0  0  0  0  0  0  0
    8.0533   -5.2718    0.0000 N   0  0  0  0  0  0  0  0  0  0  0  0
    8.8603   -5.1003    0.0000 C   0  0  0  0  0  0  0  0  0  0  0  0
    9.2728   -5.8148    0.0000 N   0  0  0  0  0  0  0  0  0  0  0  0
    8.7208   -6.4279    0.0000 C   0  0  0  0  0  0  0  0  0  0  0  0
    8.8923   -7.2348    0.0000 C   0  0  0  0  0  0  0  0  0  0  0  0
    7.9671   -6.0923    0.0000 C   0  0  0  0  0  0  0  0  0  0  0  0
    6.6556   -4.9747    0.0000 C   0  0  0  0  0  0  0  0  0  0  0  0
    6.0425   -4.4227    0.0000 C   0  0  0  0  0  0  0  0  0  0  0  0
    2.0367   -1.2991    0.0000 C   0  0  0  0  0  0  0  0  0  0  0  0
    2.0367   -0.4741    0.0000 C   0  0  0  0  0  0  0  0  0  0  0  0
  1  2  1  0  0  0  0
  2  3  4  0  0  0  0
  3  4  4  0  0  0  0
  4  5  4  0  0  0  0
  5  6  1  0  0  0  0
  6  7  4  0  0  0  0
  7  8  4  0  0  0  0
  8  9  1  0  0  0  0
  9 10  1  0  0  0  0
  9 11  1  0  0  0  0
  9 12  1  0  0  0  0
  8 13  4  0  0  0  0
 13 14  4  0  0  0  0
  6 14  4  0  0  0  0
 14 15  1  0  0  0  0
 15 16  1  0  0  0  0
 16 17  2  0  0  0  0
 16 18  1  0  0  0  0
 18 19  1  0  0  0  0
 19 20  4  0  0  0  0
 20 21  4  0  0  0  0
 21 22  4  0  0  0  0
 22 23  1  0  0  0  0
 23 24  4  0  0  0  0
 24 25  4  0  0  0  0
 25 26  4  0  0  0  0
 26 27  1  0  0  0  0
 26 28  4  0  0  0  0
 23 28  4  0  0  0  0
 22 29  4  0  0  0  0
 29 30  4  0  0  0  0
 19 30  4  0  0  0  0
  5 31  4  0  0  0  0
 31 32  4  0  0  0  0
  2 32  4  0  0  0  0
M  END
>  <CdId>
47

>  <Mol Weight>
428.54

>  <Formula>
C25H28N6O

>  <Molecule ChEMBL ID>
CHEMBL2425145

>  <Molecule Max Phase>
None

>  <Molecular Weight>
428.54

>  <#RO5 Violations>
1

>  <AlogP>
5.62

>  <Compound Key>
16

>  <Standard Type>
IC50

>  <Standard Relation>
'>'

>  <Standard Value>
10000.0

>  <Standard Units>
nM

$$$$

  Mrv2114 03112311372D          

 32 35  0  0  0  0            999 V2000
    2.7512   -1.7116    0.0000 C   0  0  0  0  0  0  0  0  0  0  0  0
    2.7512   -2.5366    0.0000 C   0  0  0  0  0  0  0  0  0  0  0  0
    3.4656   -2.9491    0.0000 C   0  0  0  0  0  0  0  0  0  0  0  0
    3.4656   -3.7741    0.0000 C   0  0  0  0  0  0  0  0  0  0  0  0
    2.7512   -4.1866    0.0000 C   0  0  0  0  0  0  0  0  0  0  0  0
    2.7512   -5.0116    0.0000 N   0  0  0  0  0  0  0  0  0  0  0  0
    2.0837   -5.4965    0.0000 N   0  0  0  0  0  0  0  0  0  0  0  0
    2.3387   -6.2812    0.0000 C   0  0  0  0  0  0  0  0  0  0  0  0
    1.8538   -6.9486    0.0000 C   0  0  0  0  0  0  0  0  0  0  0  0
    1.3688   -7.6160    0.0000 C   0  0  0  0  0  0  0  0  0  0  0  0
    1.1863   -6.4637    0.0000 C   0  0  0  0  0  0  0  0  0  0  0  0
    2.5212   -7.4335    0.0000 C   0  0  0  0  0  0  0  0  0  0  0  0
    3.1637   -6.2812    0.0000 C   0  0  0  0  0  0  0  0  0  0  0  0
    3.4186   -5.4965    0.0000 C   0  0  0  0  0  0  0  0  0  0  0  0
    4.2032   -5.2416    0.0000 N   0  0  0  0  0  0  0  0  0  0  0  0
    4.8163   -5.7936    0.0000 C   0  0  0  0  0  0  0  0  0  0  0  0
    4.6448   -6.6006    0.0000 O   0  0  0  0  0  0  0  0  0  0  0  0
    5.6010   -5.5387    0.0000 N   0  0  0  0  0  0  0  0  0  0  0  0
    6.2140   -6.0907    0.0000 C   0  0  0  0  0  0  0  0  0  0  0  0
    6.9987   -5.8358    0.0000 C   0  0  0  0  0  0  0  0  0  0  0  0
    7.6118   -6.3878    0.0000 C   0  0  0  0  0  0  0  0  0  0  0  0
    7.4402   -7.1948    0.0000 C   0  0  0  0  0  0  0  0  0  0  0  0
    8.0533   -7.7468    0.0000 C   0  0  0  0  0  0  0  0  0  0  0  0
    8.8380   -7.4919    0.0000 C   0  0  0  0  0  0  0  0  0  0  0  0
    9.4510   -8.0439    0.0000 C   0  0  0  0  0  0  0  0  0  0  0  0
    9.2795   -8.8509    0.0000 N   0  0  0  0  0  0  0  0  0  0  0  0
    8.4949   -9.1058    0.0000 C   0  0  0  0  0  0  0  0  0  0  0  0
    7.8818   -8.5538    0.0000 C   0  0  0  0  0  0  0  0  0  0  0  0
    6.6556   -7.4497    0.0000 C   0  0  0  0  0  0  0  0  0  0  0  0
    6.0425   -6.8977    0.0000 C   0  0  0  0  0  0  0  0  0  0  0  0
    2.0367   -3.7741    0.0000 C   0  0  0  0  0  0  0  0  0  0  0  0
    2.0367   -2.9491    0.0000 C   0  0  0  0  0  0  0  0  0  0  0  0
  1  2  1  0  0  0  0
  2  3  4  0  0  0  0
  3  4  4  0  0  0  0
  4  5  4  0  0  0  0
  5  6  1  0  0  0  0
  6  7  4  0  0  0  0
  7  8  4  0  0  0  0
  8  9  1  0  0  0  0
  9 10  1  0  0  0  0
  9 11  1  0  0  0  0
  9 12  1  0  0  0  0
  8 13  4  0  0  0  0
 13 14  4  0  0  0  0
  6 14  4  0  0  0  0
 14 15  1  0  0  0  0
 15 16  1  0  0  0  0
 16 17  2  0  0  0  0
 16 18  1  0  0  0  0
 18 19  1  0  0  0  0
 19 20  4  0  0  0  0
 20 21  4  0  0  0  0
 21 22  4  0  0  0  0
 22 23  1  0  0  0  0
 23 24  4  0  0  0  0
 24 25  4  0  0  0  0
 25 26  4  0  0  0  0
 26 27  4  0  0  0  0
 27 28  4  0  0  0  0
 23 28  4  0  0  0  0
 22 29  4  0  0  0  0
 29 30  4  0  0  0  0
 19 30  4  0  0  0  0
  5 31  4  0  0  0  0
 31 32  4  0  0  0  0
  2 32  4  0  0  0  0
M  END
>  <CdId>
48

>  <Mol Weight>
425.536

>  <Formula>
C26H27N5O

>  <Molecule ChEMBL ID>
CHEMBL2425158

>  <Molecule Max Phase>
None

>  <Molecular Weight>
425.54

>  <#RO5 Violations>
1

>  <AlogP>
6.18

>  <Compound Key>
29

>  <Standard Type>
IC50

>  <Standard Relation>
'>'

>  <Standard Value>
10000.0

>  <Standard Units>
nM

$$$$

  Mrv2114 03112311372D          

 35 38  0  0  0  0            999 V2000
    0.7376    5.1325    0.0000 O   0  0  0  0  0  0  0  0  0  0  0  0
    0.7376    4.3075    0.0000 N   0  3  0  0  0  0  0  0  0  0  0  0
    0.0231    3.8950    0.0000 O   0  5  0  0  0  0  0  0  0  0  0  0
    1.4521    3.8950    0.0000 C   0  0  0  0  0  0  0  0  0  0  0  0
    2.1665    4.3075    0.0000 C   0  0  0  0  0  0  0  0  0  0  0  0
    2.8810    3.8950    0.0000 C   0  0  0  0  0  0  0  0  0  0  0  0
    2.8810    3.0700    0.0000 C   0  0  0  0  0  0  0  0  0  0  0  0
    2.1665    2.6575    0.0000 C   0  0  0  0  0  0  0  0  0  0  0  0
    2.1665    1.8325    0.0000 C   0  0  0  0  0  0  0  0  0  0  0  0
    2.8810    1.4200    0.0000 C   0  0  0  0  0  0  0  0  0  0  0  0
    2.8810    0.5950    0.0000 C   0  0  0  0  0  0  0  0  0  0  0  0
    2.1665    0.1825    0.0000 C   0  0  0  0  0  0  0  0  0  0  0  0
    2.1665   -0.6425    0.0000 S   0  0  0  0  0  0  0  0  0  0  0  0
    2.9915   -0.6425    0.0000 O   0  0  0  0  0  0  0  0  0  0  0  0
    1.3415   -0.6425    0.0000 O   0  0  0  0  0  0  0  0  0  0  0  0
    2.1665   -1.4675    0.0000 N   0  0  0  0  0  0  0  0  0  0  0  0
    2.8810   -1.8800    0.0000 C   0  0  0  0  0  0  0  0  0  0  0  0
    3.5955   -1.4675    0.0000 C   0  0  0  0  0  0  0  0  0  0  0  0
    4.3099   -1.8800    0.0000 C   0  0  0  0  0  0  0  0  0  0  0  0
    5.0244   -1.4675    0.0000 C   0  0  0  0  0  0  0  0  0  0  0  0
    5.7389   -1.8800    0.0000 O   0  0  0  0  0  0  0  0  0  0  0  0
    1.4521   -1.8800    0.0000 C   0  0  0  0  0  0  0  0  0  0  0  0
    1.3658   -2.7005    0.0000 C   0  0  0  0  0  0  0  0  0  0  0  0
    0.5589   -2.8720    0.0000 C   0  0  0  0  0  0  0  0  0  0  0  0
    0.1464   -2.1575    0.0000 N   0  0  0  0  0  0  0  0  0  0  0  0
    0.6984   -1.5444    0.0000 N   0  0  0  0  0  0  0  0  0  0  0  0
    0.5269   -0.7375    0.0000 C   0  0  0  0  0  0  0  0  0  0  0  0
   -0.2578   -0.4825    0.0000 C   0  0  0  0  0  0  0  0  0  0  0  0
   -0.4293    0.3245    0.0000 C   0  0  0  0  0  0  0  0  0  0  0  0
    0.1838    0.8765    0.0000 C   0  0  0  0  0  0  0  0  0  0  0  0
    0.9684    0.6216    0.0000 C   0  0  0  0  0  0  0  0  0  0  0  0
    1.1400   -0.1854    0.0000 C   0  0  0  0  0  0  0  0  0  0  0  0
    1.4521    0.5950    0.0000 C   0  0  0  0  0  0  0  0  0  0  0  0
    1.4521    1.4200    0.0000 C   0  0  0  0  0  0  0  0  0  0  0  0
    1.4521    3.0700    0.0000 C   0  0  0  0  0  0  0  0  0  0  0  0
  1  2  2  0  0  0  0
  2  3  1  0  0  0  0
  2  4  1  0  0  0  0
  4  5  4  0  0  0  0
  5  6  4  0  0  0  0
  6  7  4  0  0  0  0
  7  8  4  0  0  0  0
  8  9  1  0  0  0  0
  9 10  4  0  0  0  0
 10 11  4  0  0  0  0
 11 12  4  0  0  0  0
 12 13  1  0  0  0  0
 13 14  2  0  0  0  0
 13 15  2  0  0  0  0
 13 16  1  0  0  0  0
 16 17  1  0  0  0  0
 17 18  1  0  0  0  0
 18 19  1  0  0  0  0
 19 20  1  0  0  0  0
 20 21  1  0  0  0  0
 16 22  1  0  0  0  0
 22 23  4  0  0  0  0
 23 24  4  0  0  0  0
 24 25  4  0  0  0  0
 25 26  4  0  0  0  0
 22 26  4  0  0  0  0
 26 27  1  0  0  0  0
 27 28  4  0  0  0  0
 28 29  4  0  0  0  0
 29 30  4  0  0  0  0
 30 31  4  0  0  0  0
 31 32  4  0  0  0  0
 27 32  4  0  0  0  0
 12 33  4  0  0  0  0
 33 34  4  0  0  0  0
  9 34  4  0  0  0  0
  8 35  4  0  0  0  0
  4 35  4  0  0  0  0
M  CHG  2   2   1   3  -1
M  END
>  <CdId>
49

>  <Mol Weight>
492.55

>  <Formula>
C25H24N4O5S

>  <Molecule ChEMBL ID>
CHEMBL121420

>  <Molecule Max Phase>
None

>  <Molecular Weight>
492.56

>  <#RO5 Violations>
0

>  <AlogP>
4.42

>  <Compound Key>
20

>  <Standard Type>
IC50

>  <Standard Relation>
'>'

>  <Standard Value>
250000.0

>  <Standard Units>
nM

$$$$

  Mrv2114 03112311372D          

 27 29  0  0  0  0            999 V2000
   -1.8414   -3.1895    0.0000 C   0  0  0  0  0  0  0  0  0  0  0  0
   -1.4289   -2.4750    0.0000 C   0  0  0  0  0  0  0  0  0  0  0  0
   -1.8414   -1.7605    0.0000 C   0  0  0  0  0  0  0  0  0  0  0  0
   -0.6039   -2.4750    0.0000 C   0  0  0  0  0  0  0  0  0  0  0  0
   -0.1914   -3.1895    0.0000 C   0  0  0  0  0  0  0  0  0  0  0  0
    0.6336   -3.1895    0.0000 N   0  0  0  0  0  0  0  0  0  0  0  0
    1.0461   -3.9039    0.0000 C   0  0  0  0  0  0  0  0  0  0  0  0
    0.7105   -4.6576    0.0000 C   0  0  0  0  0  0  0  0  0  0  0  0
    1.3236   -5.2096    0.0000 C   0  0  0  0  0  0  0  0  0  0  0  0
    2.0381   -4.7971    0.0000 N   0  0  0  0  0  0  0  0  0  0  0  0
    1.8665   -3.9902    0.0000 N   0  0  0  0  0  0  0  0  0  0  0  0
    2.4186   -3.3771    0.0000 C   0  0  0  0  0  0  0  0  0  0  0  0
    2.1636   -2.5925    0.0000 C   0  0  0  0  0  0  0  0  0  0  0  0
    2.7157   -1.9794    0.0000 C   0  0  0  0  0  0  0  0  0  0  0  0
    3.5226   -2.1509    0.0000 C   0  0  0  0  0  0  0  0  0  0  0  0
    3.7776   -2.9355    0.0000 C   0  0  0  0  0  0  0  0  0  0  0  0
    3.2255   -3.5486    0.0000 C   0  0  0  0  0  0  0  0  0  0  0  0
    1.0461   -2.4750    0.0000 S   0  0  0  0  0  0  0  0  0  0  0  0
    1.7605   -2.8875    0.0000 O   0  0  0  0  0  0  0  0  0  0  0  0
    0.3316   -2.0625    0.0000 O   0  0  0  0  0  0  0  0  0  0  0  0
    1.4586   -1.7605    0.0000 C   0  0  0  0  0  0  0  0  0  0  0  0
    1.0461   -1.0461    0.0000 C   0  0  0  0  0  0  0  0  0  0  0  0
    1.4586   -0.3316    0.0000 C   0  0  0  0  0  0  0  0  0  0  0  0
    2.2836   -0.3316    0.0000 C   0  0  0  0  0  0  0  0  0  0  0  0
    2.6961    0.3829    0.0000 N   0  0  0  0  0  0  0  0  0  0  0  0
    2.6961   -1.0461    0.0000 C   0  0  0  0  0  0  0  0  0  0  0  0
    2.2836   -1.7605    0.0000 C   0  0  0  0  0  0  0  0  0  0  0  0
  1  2  1  0  0  0  0
  2  3  1  0  0  0  0
  2  4  1  0  0  0  0
  4  5  1  0  0  0  0
  5  6  1  0  0  0  0
  6  7  1  0  0  0  0
  7  8  4  0  0  0  0
  8  9  4  0  0  0  0
  9 10  4  0  0  0  0
 10 11  4  0  0  0  0
  7 11  4  0  0  0  0
 11 12  1  0  0  0  0
 12 13  4  0  0  0  0
 13 14  4  0  0  0  0
 14 15  4  0  0  0  0
 15 16  4  0  0  0  0
 16 17  4  0  0  0  0
 12 17  4  0  0  0  0
  6 18  1  0  0  0  0
 18 19  2  0  0  0  0
 18 20  2  0  0  0  0
 18 21  1  0  0  0  0
 21 22  4  0  0  0  0
 22 23  4  0  0  0  0
 23 24  4  0  0  0  0
 24 25  1  0  0  0  0
 24 26  4  0  0  0  0
 26 27  4  0  0  0  0
 21 27  4  0  0  0  0
M  END
>  <CdId>
50

>  <Mol Weight>
384.5

>  <Formula>
C20H24N4O2S

>  <Molecule ChEMBL ID>
CHEMBL414238

>  <Molecule Max Phase>
None

>  <Molecular Weight>
384.51

>  <#RO5 Violations>
0

>  <AlogP>
3.7

>  <Compound Key>
11

>  <Standard Type>
IC50

>  <Standard Relation>
'='

>  <Standard Value>
3000.0

>  <Standard Units>
nM

$$$$

  Mrv2114 03112311372D          

 26 27  0  0  0  0            999 V2000
   -4.0010   -0.7590    0.0000 C   0  0  0  0  0  0  0  0  0  0  0  0
   -3.2866   -0.3465    0.0000 C   0  0  0  0  0  0  0  0  0  0  0  0
   -2.5721   -0.7590    0.0000 N   0  0  0  0  0  0  0  0  0  0  0  0
   -2.5721   -1.5840    0.0000 C   0  0  0  0  0  0  0  0  0  0  0  0
   -3.2866   -1.9965    0.0000 C   0  0  0  0  0  0  0  0  0  0  0  0
   -1.8576   -0.3465    0.0000 C   0  0  0  0  0  0  0  0  0  0  0  0
   -1.1432   -0.7590    0.0000 C   0  0  0  0  0  0  0  0  0  0  0  0
   -0.4287   -0.3465    0.0000 C   0  0  0  0  0  0  0  0  0  0  0  0
    0.2858   -0.7590    0.0000 C   0  0  0  0  0  0  0  0  0  0  0  0
    1.0003   -0.3465    0.0000 N   0  0  0  0  0  0  0  0  0  0  0  0
    1.0003    0.4785    0.0000 C   0  0  0  0  0  0  0  0  0  0  0  0
    0.2858    0.8910    0.0000 C   0  0  0  0  0  0  0  0  0  0  0  0
    0.2858    1.7160    0.0000 C   0  0  0  0  0  0  0  0  0  0  0  0
    1.0003    2.1285    0.0000 N   0  0  0  0  0  0  0  0  0  0  0  0
    1.7147    1.7160    0.0000 C   0  0  0  0  0  0  0  0  0  0  0  0
    2.4292    2.1285    0.0000 C   0  0  0  0  0  0  0  0  0  0  0  0
    3.1437    1.7160    0.0000 C   0  0  0  0  0  0  0  0  0  0  0  0
    3.8581    2.1285    0.0000 Cl  0  0  0  0  0  0  0  0  0  0  0  0
    3.1437    0.8910    0.0000 C   0  0  0  0  0  0  0  0  0  0  0  0
    2.4292    0.4785    0.0000 C   0  0  0  0  0  0  0  0  0  0  0  0
    1.7147    0.8910    0.0000 C   0  0  0  0  0  0  0  0  0  0  0  0
    0.2858   -1.5840    0.0000 C   0  0  0  0  0  0  0  0  0  0  0  0
   -0.4287   -1.9965    0.0000 C   0  0  0  0  0  0  0  0  0  0  0  0
   -1.1432   -1.5840    0.0000 C   0  0  0  0  0  0  0  0  0  0  0  0
   -1.8576   -1.9965    0.0000 O   0  0  0  0  0  0  0  0  0  0  0  0
    5.8617    0.0000    0.0000 Cl  0  0  0  0  0  0  0  0  0  0  0  0
  1  2  1  0  0  0  0
  2  3  1  0  0  0  0
  3  4  1  0  0  0  0
  4  5  1  0  0  0  0
  3  6  1  0  0  0  0
  6  7  1  0  0  0  0
  7  8  4  0  0  0  0
  8  9  4  0  0  0  0
  9 10  1  0  0  0  0
 10 11  1  0  0  0  0
 11 12  4  0  0  0  0
 12 13  4  0  0  0  0
 13 14  4  0  0  0  0
 14 15  4  0  0  0  0
 15 16  4  0  0  0  0
 16 17  4  0  0  0  0
 17 18  1  0  0  0  0
 17 19  4  0  0  0  0
 19 20  4  0  0  0  0
 20 21  4  0  0  0  0
 11 21  4  0  0  0  0
 15 21  4  0  0  0  0
  9 22  4  0  0  0  0
 22 23  4  0  0  0  0
 23 24  4  0  0  0  0
  7 24  4  0  0  0  0
 24 25  1  0  0  0  0
M  END
>  <CdId>
51

>  <Mol Weight>
392.32

>  <Formula>
C20H23Cl2N3O

>  <Molecule ChEMBL ID>
CHEMBL1630

>  <Molecule Name>
AMODIAQUINE HYDROCHLORIDE

>  <Molecule Max Phase>
None

>  <Molecular Weight>
392.33

>  <#RO5 Violations>
1

>  <AlogP>
5.18

>  <Compound Key>
2

>  <Standard Type>
IC50

>  <Standard Relation>
'='

>  <Standard Value>
2700.0

>  <Standard Units>
nM

$$$$

  Mrv2114 03112311372D          

 26 28  0  0  0  0            999 V2000
   -0.7145   -3.7125    0.0000 C   0  0  0  0  0  0  0  0  0  0  0  0
    0.0000   -4.1250    0.0000 O   0  0  0  0  0  0  0  0  0  0  0  0
    0.7145   -3.7125    0.0000 C   0  0  0  0  0  0  0  0  0  0  0  0
    0.7145   -2.8875    0.0000 C   0  0  0  0  0  0  0  0  0  0  0  0
    1.4289   -2.4750    0.0000 C   0  0  0  0  0  0  0  0  0  0  0  0
    1.4289   -1.6500    0.0000 C   0  0  0  0  0  0  0  0  0  0  0  0
    0.7145   -1.2375    0.0000 C   0  0  0  0  0  0  0  0  0  0  0  0
    0.7145   -0.4125    0.0000 N   0  0  0  0  0  0  0  0  0  0  0  0
    0.0000    0.0000    0.0000 C   0  0  0  0  0  0  0  0  0  0  0  0
    1.4289    0.0000    0.0000 C   0  0  0  0  0  0  0  0  0  0  0  0
    1.4289    0.8250    0.0000 O   0  0  0  0  0  0  0  0  0  0  0  0
    2.1434   -0.4125    0.0000 C   0  0  0  0  0  0  0  0  0  0  0  0
    2.8579    0.0000    0.0000 C   0  0  0  0  0  0  0  0  0  0  0  0
    3.5724   -0.4125    0.0000 N   0  0  0  0  0  0  0  0  0  0  0  0
    3.5724   -1.2375    0.0000 C   0  0  0  0  0  0  0  0  0  0  0  0
    2.8579   -1.6500    0.0000 C   0  0  0  0  0  0  0  0  0  0  0  0
    2.1434   -1.2375    0.0000 C   0  0  0  0  0  0  0  0  0  0  0  0
    2.1434   -2.8875    0.0000 C   0  0  0  0  0  0  0  0  0  0  0  0
    2.1434   -3.7125    0.0000 C   0  0  0  0  0  0  0  0  0  0  0  0
    2.8579   -4.1250    0.0000 O   0  0  0  0  0  0  0  0  0  0  0  0
    2.8579   -4.9500    0.0000 C   0  0  0  0  0  0  0  0  0  0  0  0
    1.4289   -4.1250    0.0000 C   0  0  0  0  0  0  0  0  0  0  0  0
    1.4289   -4.9500    0.0000 C   0  0  0  0  0  0  0  0  0  0  0  0
    0.7145   -5.3625    0.0000 N   0  0  0  0  0  0  0  0  0  0  0  0
    0.7145   -6.1875    0.0000 C   0  0  0  0  0  0  0  0  0  0  0  0
    0.0000   -4.9500    0.0000 C   0  0  0  0  0  0  0  0  0  0  0  0
  1  2  1  0  0  0  0
  2  3  1  0  0  0  0
  3  4  4  0  0  0  0
  4  5  4  0  0  0  0
  5  6  1  0  0  0  0
  6  7  4  0  0  0  0
  7  8  4  0  0  0  0
  8  9  1  0  0  0  0
  8 10  4  0  0  0  0
 10 11  2  0  0  0  0
 10 12  4  0  0  0  0
 12 13  4  0  0  0  0
 13 14  4  0  0  0  0
 14 15  4  0  0  0  0
 15 16  4  0  0  0  0
 16 17  4  0  0  0  0
  6 17  4  0  0  0  0
 12 17  4  0  0  0  0
  5 18  4  0  0  0  0
 18 19  4  0  0  0  0
 19 20  1  0  0  0  0
 20 21  1  0  0  0  0
 19 22  4  0  0  0  0
  3 22  4  0  0  0  0
 22 23  1  0  0  0  0
 23 24  1  0  0  0  0
 24 25  1  0  0  0  0
 24 26  1  0  0  0  0
M  END
>  <CdId>
52

>  <Mol Weight>
353.422

>  <Formula>
C20H23N3O3

>  <Molecule ChEMBL ID>
CHEMBL3823478

>  <Molecule Max Phase>
None

>  <Molecular Weight>
353.42

>  <#RO5 Violations>
0

>  <AlogP>
2.68

>  <Compound Key>
1; BI-7273

>  <Standard Type>
IC50

>  <Standard Relation>
'>'

>  <Standard Value>
50000.0

>  <Standard Units>
nM

$$$$

  Mrv2114 03112311372D          

 40 45  0  0  0  0            999 V2000
   -2.1434   -3.7125    0.0000 C   0  0  0  0  0  0  0  0  0  0  0  0
   -2.1434   -2.8875    0.0000 C   0  0  0  0  0  0  0  0  0  0  0  0
   -1.4289   -2.4750    0.0000 N   0  0  0  0  0  0  0  0  0  0  0  0
   -1.4289   -1.6500    0.0000 C   0  0  0  0  0  0  0  0  0  0  0  0
   -0.7145   -1.2375    0.0000 C   0  0  0  0  0  0  0  0  0  0  0  0
    0.0000   -1.6500    0.0000 C   0  0  0  0  0  0  0  0  0  0  0  0
    0.7145   -1.2375    0.0000 N   0  0  0  0  0  0  0  0  0  0  0  0
    0.7145   -0.4125    0.0000 C   0  0  0  0  0  0  0  0  0  0  0  0
    1.4289    0.0000    0.0000 C   0  0  0  0  0  0  0  0  0  0  0  0
    2.1434   -0.4125    0.0000 C   0  0  0  0  0  0  0  0  0  0  0  0
    2.8579    0.0000    0.0000 N   0  0  0  0  0  0  0  0  0  0  0  0
    3.5724   -0.4125    0.0000 C   0  0  0  0  0  0  0  0  0  0  0  0
    4.2868   -0.0000    0.0000 N   0  0  0  0  0  0  0  0  0  0  0  0
    4.2868    0.8250    0.0000 C   0  0  0  0  0  0  0  0  0  0  0  0
    3.5724    1.2375    0.0000 N   0  0  0  0  0  0  0  0  0  0  0  0
    3.5724    2.0625    0.0000 C   0  0  0  0  0  0  0  0  0  0  0  0
    4.2868    2.4750    0.0000 C   0  0  0  0  0  0  0  0  0  0  0  0
    4.2868    3.3000    0.0000 F   0  0  0  0  0  0  0  0  0  0  0  0
    5.0013    2.0625    0.0000 C   0  0  0  0  0  0  0  0  0  0  0  0
    5.7158    2.4750    0.0000 C   0  0  0  0  0  0  0  0  0  0  0  0
    5.7158    3.3000    0.0000 C   0  0  0  0  0  0  0  0  0  0  0  0
    6.4302    3.7125    0.0000 C   0  0  0  0  0  0  0  0  0  0  0  0
    6.4302    4.5375    0.0000 F   0  0  0  0  0  0  0  0  0  0  0  0
    7.1447    3.3000    0.0000 C   0  0  0  0  0  0  0  0  0  0  0  0
    7.9293    3.5549    0.0000 N   0  0  0  0  0  0  0  0  0  0  0  0
    8.4143    2.8875    0.0000 C   0  0  0  0  0  0  0  0  0  0  0  0
    9.2393    2.8875    0.0000 C   0  0  0  0  0  0  0  0  0  0  0  0
    7.9293    2.2201    0.0000 N   0  0  0  0  0  0  0  0  0  0  0  0
    8.1843    1.4354    0.0000 C   0  0  0  0  0  0  0  0  0  0  0  0
    7.6322    0.8223    0.0000 C   0  0  0  0  0  0  0  0  0  0  0  0
    8.9912    1.2639    0.0000 C   0  0  0  0  0  0  0  0  0  0  0  0
    7.1447    2.4750    0.0000 C   0  0  0  0  0  0  0  0  0  0  0  0
    6.4302    2.0625    0.0000 C   0  0  0  0  0  0  0  0  0  0  0  0
    5.0013    1.2375    0.0000 N   0  0  0  0  0  0  0  0  0  0  0  0
    3.5724   -1.2375    0.0000 C   0  0  0  0  0  0  0  0  0  0  0  0
    2.8579   -1.6500    0.0000 C   0  0  0  0  0  0  0  0  0  0  0  0
    2.1434   -1.2375    0.0000 C   0  0  0  0  0  0  0  0  0  0  0  0
    1.4289   -1.6500    0.0000 C   0  0  0  0  0  0  0  0  0  0  0  0
    0.0000   -2.4750    0.0000 C   0  0  0  0  0  0  0  0  0  0  0  0
   -0.7145   -2.8875    0.0000 C   0  0  0  0  0  0  0  0  0  0  0  0
  1  2  1  0  0  0  0
  2  3  1  0  0  0  0
  3  4  1  0  0  0  0
  4  5  1  0  0  0  0
  5  6  1  0  0  0  0
  6  7  1  0  0  0  0
  7  8  1  0  0  0  0
  8  9  1  0  0  0  0
  9 10  1  0  0  0  0
 10 11  4  0  0  0  0
 11 12  4  0  0  0  0
 12 13  1  0  0  0  0
 13 14  1  0  0  0  0
 14 15  4  0  0  0  0
 15 16  4  0  0  0  0
 16 17  4  0  0  0  0
 17 18  1  0  0  0  0
 17 19  4  0  0  0  0
 19 20  1  0  0  0  0
 20 21  4  0  0  0  0
 21 22  4  0  0  0  0
 22 23  1  0  0  0  0
 22 24  4  0  0  0  0
 24 25  4  0  0  0  0
 25 26  4  0  0  0  0
 26 27  1  0  0  0  0
 26 28  4  0  0  0  0
 28 29  1  0  0  0  0
 29 30  1  0  0  0  0
 29 31  1  0  0  0  0
 28 32  4  0  0  0  0
 24 32  4  0  0  0  0
 32 33  4  0  0  0  0
 20 33  4  0  0  0  0
 19 34  4  0  0  0  0
 14 34  4  0  0  0  0
 12 35  4  0  0  0  0
 35 36  4  0  0  0  0
 36 37  4  0  0  0  0
 10 37  4  0  0  0  0
 37 38  1  0  0  0  0
  7 38  1  0  0  0  0
  6 39  1  0  0  0  0
 39 40  1  0  0  0  0
  3 40  1  0  0  0  0
M  END
>  <CdId>
53

>  <Mol Weight>
546.671

>  <Formula>
C30H36F2N8

>  <Molecule ChEMBL ID>
CHEMBL4203179

>  <Molecule Max Phase>
None

>  <Molecular Weight>
546.67

>  <#RO5 Violations>
2

>  <AlogP>
5.64

>  <Compound Key>
28

>  <Standard Type>
IC50

>  <Standard Relation>
'>'

>  <Standard Value>
50000.0

>  <Standard Units>
nM

$$$$

  Mrv2114 03112311372D          

 28 30  0  0  0  0            999 V2000
    3.8781   -2.8386    0.0000 C   0  0  0  0  0  0  0  0  0  0  0  0
    3.4656   -2.1241    0.0000 C   0  0  0  0  0  0  0  0  0  0  0  0
    3.0531   -1.4096    0.0000 C   0  0  0  0  0  0  0  0  0  0  0  0
    2.7512   -2.5366    0.0000 C   0  0  0  0  0  0  0  0  0  0  0  0
    2.7512   -3.3616    0.0000 C   0  0  0  0  0  0  0  0  0  0  0  0
    3.4186   -3.8465    0.0000 N   0  0  0  0  0  0  0  0  0  0  0  0
    3.1637   -4.6312    0.0000 C   0  0  0  0  0  0  0  0  0  0  0  0
    3.6486   -5.2986    0.0000 C   0  0  0  0  0  0  0  0  0  0  0  0
    4.4691   -5.2124    0.0000 C   0  0  0  0  0  0  0  0  0  0  0  0
    4.9540   -5.8798    0.0000 C   0  0  0  0  0  0  0  0  0  0  0  0
    4.6184   -6.6335    0.0000 C   0  0  0  0  0  0  0  0  0  0  0  0
    5.1034   -7.3009    0.0000 O   0  0  0  0  0  0  0  0  0  0  0  0
    3.7980   -6.7197    0.0000 C   0  0  0  0  0  0  0  0  0  0  0  0
    3.3130   -6.0523    0.0000 N   0  0  0  0  0  0  0  0  0  0  0  0
    2.3387   -4.6312    0.0000 N   0  0  0  0  0  0  0  0  0  0  0  0
    2.0837   -3.8465    0.0000 O   0  0  0  0  0  0  0  0  0  0  0  0
    4.1801   -1.7116    0.0000 C   0  0  0  0  0  0  0  0  0  0  0  0
    4.8946   -2.1241    0.0000 O   0  0  0  0  0  0  0  0  0  0  0  0
    4.1801   -0.8866    0.0000 N   0  0  0  0  0  0  0  0  0  0  0  0
    4.8946   -0.4741    0.0000 C   0  0  0  0  0  0  0  0  0  0  0  0
    4.8946    0.3509    0.0000 C   0  0  0  0  0  0  0  0  0  0  0  0
    4.1801    0.7634    0.0000 C   0  0  0  0  0  0  0  0  0  0  0  0
    3.4656    0.3509    0.0000 O   0  0  0  0  0  0  0  0  0  0  0  0
    4.1801    1.5884    0.0000 O   0  0  0  0  0  0  0  0  0  0  0  0
    5.6091    0.7634    0.0000 C   0  0  0  0  0  0  0  0  0  0  0  0
    6.3235    0.3509    0.0000 C   0  0  0  0  0  0  0  0  0  0  0  0
    6.3235   -0.4741    0.0000 C   0  0  0  0  0  0  0  0  0  0  0  0
    5.6091   -0.8866    0.0000 C   0  0  0  0  0  0  0  0  0  0  0  0
  1  2  1  0  0  0  0
  2  3  1  0  0  0  0
  2  4  1  0  0  0  0
  4  5  1  0  0  0  0
  5  6  4  0  0  0  0
  6  7  4  0  0  0  0
  7  8  1  0  0  0  0
  8  9  4  0  0  0  0
  9 10  4  0  0  0  0
 10 11  4  0  0  0  0
 11 12  1  0  0  0  0
 11 13  4  0  0  0  0
 13 14  4  0  0  0  0
  8 14  4  0  0  0  0
  7 15  4  0  0  0  0
 15 16  4  0  0  0  0
  5 16  4  0  0  0  0
  2 17  1  0  0  0  0
 17 18  2  0  0  0  0
 17 19  1  0  0  0  0
 19 20  1  0  0  0  0
 20 21  2  0  0  0  0
 21 22  1  0  0  0  0
 22 23  2  0  0  0  0
 22 24  1  0  0  0  0
 21 25  1  0  0  0  0
 25 26  1  0  0  0  0
 26 27  1  0  0  0  0
 27 28  1  0  0  0  0
 20 28  1  0  0  0  0
M  END
>  <CdId>
54

>  <Mol Weight>
386.408

>  <Formula>
C19H22N4O5

>  <Molecule ChEMBL ID>
CHEMBL1086657

>  <Molecule Max Phase>
None

>  <Molecular Weight>
386.41

>  <#RO5 Violations>
0

>  <AlogP>
2.43

>  <Compound Key>
1e, MK-6892

>  <Standard Type>
IC50

>  <Standard Relation>
'>'

>  <Standard Value>
100000.0

>  <Standard Units>
nM

$$$$

  Mrv2114 03112311372D          

 25 27  0  0  0  0            999 V2000
   -3.5724   -2.0625    0.0000 C   0  0  0  0  0  0  0  0  0  0  0  0
   -2.8579   -2.4750    0.0000 C   0  0  0  0  0  0  0  0  0  0  0  0
   -3.2704   -3.1895    0.0000 C   0  0  0  0  0  0  0  0  0  0  0  0
   -2.4454   -1.7605    0.0000 C   0  0  0  0  0  0  0  0  0  0  0  0
   -2.1434   -2.8875    0.0000 N   0  0  0  0  0  0  0  0  0  0  0  0
   -1.4289   -2.4750    0.0000 C   0  0  0  0  0  0  0  0  0  0  0  0
   -0.7145   -2.8875    0.0000 C   0  0  0  0  0  0  0  0  0  0  0  0
    0.0000   -2.4750    0.0000 C   0  0  0  0  0  0  0  0  0  0  0  0
    0.7145   -2.8875    0.0000 C   0  0  0  0  0  0  0  0  0  0  0  0
    1.4289   -2.4750    0.0000 N   0  0  0  0  0  0  0  0  0  0  0  0
    1.4289   -1.6500    0.0000 C   0  0  0  0  0  0  0  0  0  0  0  0
    0.7145   -1.2375    0.0000 C   0  0  0  0  0  0  0  0  0  0  0  0
    0.7145   -0.4125    0.0000 C   0  0  0  0  0  0  0  0  0  0  0  0
    1.4289    0.0000    0.0000 N   0  0  0  0  0  0  0  0  0  0  0  0
    2.1434   -0.4125    0.0000 C   0  0  0  0  0  0  0  0  0  0  0  0
    2.8579    0.0000    0.0000 C   0  0  0  0  0  0  0  0  0  0  0  0
    3.5724   -0.4125    0.0000 C   0  0  0  0  0  0  0  0  0  0  0  0
    4.2868   -0.0000    0.0000 Cl  0  0  0  0  0  0  0  0  0  0  0  0
    3.5724   -1.2375    0.0000 C   0  0  0  0  0  0  0  0  0  0  0  0
    2.8579   -1.6500    0.0000 C   0  0  0  0  0  0  0  0  0  0  0  0
    2.1434   -1.2375    0.0000 C   0  0  0  0  0  0  0  0  0  0  0  0
    0.7145   -3.7125    0.0000 C   0  0  0  0  0  0  0  0  0  0  0  0
    0.0000   -4.1250    0.0000 C   0  0  0  0  0  0  0  0  0  0  0  0
   -0.7145   -3.7125    0.0000 C   0  0  0  0  0  0  0  0  0  0  0  0
   -1.4289   -4.1250    0.0000 F   0  0  0  0  0  0  0  0  0  0  0  0
  1  2  1  0  0  0  0
  2  3  1  0  0  0  0
  2  4  1  0  0  0  0
  2  5  1  0  0  0  0
  5  6  1  0  0  0  0
  6  7  1  0  0  0  0
  7  8  4  0  0  0  0
  8  9  4  0  0  0  0
  9 10  1  0  0  0  0
 10 11  1  0  0  0  0
 11 12  4  0  0  0  0
 12 13  4  0  0  0  0
 13 14  4  0  0  0  0
 14 15  4  0  0  0  0
 15 16  4  0  0  0  0
 16 17  4  0  0  0  0
 17 18  1  0  0  0  0
 17 19  4  0  0  0  0
 19 20  4  0  0  0  0
 20 21  4  0  0  0  0
 11 21  4  0  0  0  0
 15 21  4  0  0  0  0
  9 22  4  0  0  0  0
 22 23  4  0  0  0  0
 23 24  4  0  0  0  0
  7 24  4  0  0  0  0
 24 25  1  0  0  0  0
M  END
>  <CdId>
55

>  <Mol Weight>
357.86

>  <Formula>
C20H21ClFN3

>  <Molecule ChEMBL ID>
CHEMBL453384

>  <Molecule Max Phase>
None

>  <Molecular Weight>
357.86

>  <#RO5 Violations>
1

>  <AlogP>
5.66

>  <Compound Key>
2k

>  <Standard Type>
IC50

>  <Standard Relation>
'='

>  <Standard Value>
9800.0

>  <Standard Units>
nM

$$$$

  Mrv2114 03112311372D          

 33 36  0  0  1  0            999 V2000
   -2.3020   -5.0184    0.0000 C   0  0  0  0  0  0  0  0  0  0  0  0
   -2.0470   -4.2338    0.0000 C   0  0  1  0  0  0  0  0  0  0  0  0
   -2.5990   -3.6207    0.0000 O   0  0  0  0  0  0  0  0  0  0  0  0
   -2.3441   -2.8361    0.0000 C   0  0  0  0  0  0  0  0  0  0  0  0
   -3.1611   -2.7213    0.0000 C   0  0  0  0  0  0  0  0  0  0  0  0
   -2.3729   -2.0116    0.0000 C   0  0  0  0  0  0  0  0  0  0  0  0
   -1.5371   -2.6646    0.0000 C   0  0  0  0  0  0  0  0  0  0  0  0
   -1.2822   -1.8800    0.0000 O   0  0  0  0  0  0  0  0  0  0  0  0
   -0.9851   -3.2777    0.0000 N   0  0  0  0  0  0  0  0  0  0  0  0
   -0.1781   -3.1062    0.0000 C   0  0  0  0  0  0  0  0  0  0  0  0
    0.0768   -2.3215    0.0000 C   0  0  0  0  0  0  0  0  0  0  0  0
    0.8838   -2.1500    0.0000 C   0  0  0  0  0  0  0  0  0  0  0  0
    1.1387   -1.3654    0.0000 C   0  0  0  0  0  0  0  0  0  0  0  0
    0.6538   -0.6979    0.0000 C   0  0  0  0  0  0  0  0  0  0  0  0
    1.1387   -0.0305    0.0000 C   0  0  0  0  0  0  0  0  0  0  0  0
    0.8838    0.7541    0.0000 C   0  0  0  0  0  0  0  0  0  0  0  0
    0.6288    1.5387    0.0000 F   0  0  0  0  0  0  0  0  0  0  0  0
    1.6684    1.0091    0.0000 F   0  0  0  0  0  0  0  0  0  0  0  0
    0.0992    0.4992    0.0000 F   0  0  0  0  0  0  0  0  0  0  0  0
    1.9233   -0.2854    0.0000 C   0  0  0  0  0  0  0  0  0  0  0  0
    2.6378    0.1271    0.0000 C   0  0  0  0  0  0  0  0  0  0  0  0
    2.6378    0.9521    0.0000 N   0  0  0  0  0  0  0  0  0  0  0  0
    3.3523   -0.2854    0.0000 N   0  0  0  0  0  0  0  0  0  0  0  0
    3.3523   -1.1104    0.0000 C   0  0  0  0  0  0  0  0  0  0  0  0
    2.6378   -1.5229    0.0000 N   0  0  0  0  0  0  0  0  0  0  0  0
    1.9233   -1.1104    0.0000 N   0  0  0  0  0  0  0  0  0  0  0  0
    1.4358   -2.7631    0.0000 C   0  0  0  0  0  0  0  0  0  0  0  0
    1.1809   -3.5477    0.0000 C   0  0  0  0  0  0  0  0  0  0  0  0
    0.3739   -3.7192    0.0000 C   0  0  0  0  0  0  0  0  0  0  0  0
    0.1190   -4.5039    0.0000 C   0  0  0  0  0  0  0  0  0  0  0  0
   -0.1360   -5.2885    0.0000 N   0  0  0  0  0  0  0  0  0  0  0  0
   -1.2400   -4.0623    0.0000 C   0  0  1  0  0  0  0  0  0  0  0  0
   -0.6880   -4.6754    0.0000 C   0  0  0  0  0  0  0  0  0  0  0  0
  2  1  1  1  0  0  0
  2  3  1  0  0  0  0
  3  4  1  0  0  0  0
  4  5  1  0  0  0  0
  4  6  1  0  0  0  0
  4  7  1  0  0  0  0
  7  8  2  0  0  0  0
  7  9  1  0  0  0  0
  9 10  1  0  0  0  0
 10 11  4  0  0  0  0
 11 12  4  0  0  0  0
 12 13  1  0  0  0  0
 13 14  4  0  0  0  0
 14 15  4  0  0  0  0
 15 16  1  0  0  0  0
 16 17  1  0  0  0  0
 16 18  1  0  0  0  0
 16 19  1  0  0  0  0
 15 20  4  0  0  0  0
 20 21  4  0  0  0  0
 21 22  1  0  0  0  0
 21 23  4  0  0  0  0
 23 24  4  0  0  0  0
 24 25  4  0  0  0  0
 25 26  4  0  0  0  0
 13 26  4  0  0  0  0
 20 26  4  0  0  0  0
 12 27  4  0  0  0  0
 27 28  4  0  0  0  0
 28 29  4  0  0  0  0
 10 29  4  0  0  0  0
 29 30  1  0  0  0  0
 30 31  3  0  0  0  0
 32  9  1  0  0  0  0
  2 32  1  0  0  0  0
 32 33  1  1  0  0  0
M  END
>  <CdId>
56

>  <Mol Weight>
458.445

>  <Formula>
C22H21F3N6O2

>  <Molecule ChEMBL ID>
CHEMBL4091875

>  <Molecule Max Phase>
None

>  <Molecular Weight>
458.44

>  <#RO5 Violations>
0

>  <AlogP>
3.79

>  <Compound Key>
31

>  <Standard Type>
IC50

>  <Standard Relation>
'>'

>  <Standard Value>
20000.0

>  <Standard Units>
nM

$$$$

  Mrv2114 03112311372D          

 28 30  0  0  1  0            999 V2000
    4.2317    0.8041    0.0000 C   0  0  0  0  0  0  0  0  0  0  0  0
    4.2317   -0.0209    0.0000 C   0  0  0  0  0  0  0  0  0  0  0  0
    3.4067   -0.0209    0.0000 C   0  0  0  0  0  0  0  0  0  0  0  0
    5.0567   -0.0209    0.0000 C   0  0  0  0  0  0  0  0  0  0  0  0
    4.2317   -0.8459    0.0000 C   0  0  0  0  0  0  0  0  0  0  0  0
    4.8991   -1.3308    0.0000 C   0  0  0  0  0  0  0  0  0  0  0  0
    4.6442   -2.1155    0.0000 C   0  0  0  0  0  0  0  0  0  0  0  0
    5.1291   -2.7829    0.0000 N   0  0  0  0  0  0  0  0  0  0  0  0
    4.7936   -3.5366    0.0000 C   0  0  0  0  0  0  0  0  0  0  0  0
    3.9731   -3.6228    0.0000 O   0  0  0  0  0  0  0  0  0  0  0  0
    5.2785   -4.2040    0.0000 C   0  0  2  0  0  0  0  0  0  0  0  0
    6.1035   -4.2040    0.0000 C   0  0  0  0  0  0  0  0  0  0  0  0
    6.3584   -4.9886    0.0000 C   0  0  0  0  0  0  0  0  0  0  0  0
    5.6910   -5.4736    0.0000 C   0  0  0  0  0  0  0  0  0  0  0  0
    5.6910   -6.2986    0.0000 O   0  0  0  0  0  0  0  0  0  0  0  0
    5.0235   -4.9886    0.0000 N   0  0  0  0  0  0  0  0  0  0  0  0
    4.2389   -5.2436    0.0000 C   0  0  0  0  0  0  0  0  0  0  0  0
    4.0674   -6.0506    0.0000 C   0  0  0  0  0  0  0  0  0  0  0  0
    3.2828   -6.3055    0.0000 C   0  0  0  0  0  0  0  0  0  0  0  0
    2.6697   -5.7535    0.0000 C   0  0  0  0  0  0  0  0  0  0  0  0
    1.8850   -6.0084    0.0000 C   0  0  0  0  0  0  0  0  0  0  0  0
    1.1004   -6.2633    0.0000 F   0  0  0  0  0  0  0  0  0  0  0  0
    1.6301   -5.2238    0.0000 F   0  0  0  0  0  0  0  0  0  0  0  0
    2.1400   -6.7930    0.0000 F   0  0  0  0  0  0  0  0  0  0  0  0
    2.8412   -4.9465    0.0000 C   0  0  0  0  0  0  0  0  0  0  0  0
    3.6258   -4.6916    0.0000 C   0  0  0  0  0  0  0  0  0  0  0  0
    3.8192   -2.1155    0.0000 O   0  0  0  0  0  0  0  0  0  0  0  0
    3.5642   -1.3308    0.0000 N   0  0  0  0  0  0  0  0  0  0  0  0
  1  2  1  0  0  0  0
  2  3  1  0  0  0  0
  2  4  1  0  0  0  0
  2  5  1  0  0  0  0
  5  6  4  0  0  0  0
  6  7  4  0  0  0  0
  7  8  1  0  0  0  0
  8  9  1  0  0  0  0
  9 10  2  0  0  0  0
 11  9  1  6  0  0  0
 11 12  1  0  0  0  0
 12 13  1  0  0  0  0
 13 14  1  0  0  0  0
 14 15  2  0  0  0  0
 14 16  1  0  0  0  0
 11 16  1  0  0  0  0
 16 17  1  0  0  0  0
 17 18  4  0  0  0  0
 18 19  4  0  0  0  0
 19 20  4  0  0  0  0
 20 21  1  0  0  0  0
 21 22  1  0  0  0  0
 21 23  1  0  0  0  0
 21 24  1  0  0  0  0
 20 25  4  0  0  0  0
 25 26  4  0  0  0  0
 17 26  4  0  0  0  0
  7 27  4  0  0  0  0
 27 28  4  0  0  0  0
  5 28  4  0  0  0  0
M  END
>  <CdId>
57

>  <Mol Weight>
395.382

>  <Formula>
C19H20F3N3O3

>  <Molecule ChEMBL ID>
CHEMBL3353881

>  <Molecule Max Phase>
None

>  <Molecular Weight>
395.38

>  <#RO5 Violations>
0

>  <AlogP>
4.13

>  <Compound Key>
22

>  <Standard Type>
IC50

>  <Standard Relation>
'='

>  <Standard Value>
23000.0

>  <Standard Units>
nM

$$$$

  Mrv2114 03112311372D          

 30 31  0  0  1  0            999 V2000
    2.8579   -4.9500    0.0000 C   0  0  0  0  0  0  0  0  0  0  0  0
    2.8579   -5.7750    0.0000 C   0  0  0  0  0  0  0  0  0  0  0  0
    3.5724   -6.1875    0.0000 C   0  0  0  0  0  0  0  0  0  0  0  0
    3.5724   -7.0125    0.0000 C   0  0  0  0  0  0  0  0  0  0  0  0
    2.8579   -7.4250    0.0000 C   0  0  0  0  0  0  0  0  0  0  0  0
    2.8579   -8.2500    0.0000 C   0  0  0  0  0  0  0  0  0  0  0  0
    2.1434   -7.0125    0.0000 C   0  0  0  0  0  0  0  0  0  0  0  0
    1.4289   -7.4250    0.0000 O   0  0  0  0  0  0  0  0  0  0  0  0
    1.4289   -8.2500    0.0000 C   0  0  0  0  0  0  0  0  0  0  0  0
    0.7145   -8.6625    0.0000 C   0  0  0  0  0  0  0  0  0  0  0  0
    0.7145   -9.4875    0.0000 C   0  0  0  0  0  0  0  0  0  0  0  0
    0.0000   -9.9000    0.0000 C   0  0  0  0  0  0  0  0  0  0  0  0
   -0.4125   -9.1855    0.0000 C   0  0  0  0  0  0  0  0  0  0  0  0
    0.4125  -10.6145    0.0000 C   0  0  0  0  0  0  0  0  0  0  0  0
   -0.7145  -10.3125    0.0000 C   0  0  0  0  0  0  0  0  0  0  0  0
   -1.4289   -9.9000    0.0000 O   0  0  0  0  0  0  0  0  0  0  0  0
   -0.7145  -11.1375    0.0000 O   0  0  0  0  0  0  0  0  0  0  0  0
   -1.4289  -11.5500    0.0000 C   0  0  2  0  0  0  0  0  0  0  0  0
   -1.4289  -12.3750    0.0000 O   0  0  0  0  0  0  0  0  0  0  0  0
   -2.1434  -12.7875    0.0000 C   0  0  2  0  0  0  0  0  0  0  0  0
   -2.1434  -13.6125    0.0000 C   0  0  0  0  0  0  0  0  0  0  0  0
   -1.4289  -14.0250    0.0000 O   0  0  0  0  0  0  0  0  0  0  0  0
   -2.8579  -14.0250    0.0000 O   0  0  0  0  0  0  0  0  0  0  0  0
   -2.8579  -12.3750    0.0000 C   0  0  1  0  0  0  0  0  0  0  0  0
   -3.5724  -12.7875    0.0000 O   0  0  0  0  0  0  0  0  0  0  0  0
   -2.8579  -11.5500    0.0000 C   0  0  2  0  0  0  0  0  0  0  0  0
   -3.5724  -11.1375    0.0000 O   0  0  0  0  0  0  0  0  0  0  0  0
   -2.1434  -11.1375    0.0000 C   0  0  1  0  0  0  0  0  0  0  0  0
   -2.1434  -10.3125    0.0000 O   0  0  0  0  0  0  0  0  0  0  0  0
    2.1434   -6.1875    0.0000 C   0  0  0  0  0  0  0  0  0  0  0  0
  1  2  1  0  0  0  0
  2  3  4  0  0  0  0
  3  4  4  0  0  0  0
  4  5  4  0  0  0  0
  5  6  1  0  0  0  0
  5  7  4  0  0  0  0
  7  8  1  0  0  0  0
  8  9  1  0  0  0  0
  9 10  1  0  0  0  0
 10 11  1  0  0  0  0
 11 12  1  0  0  0  0
 12 13  1  0  0  0  0
 12 14  1  0  0  0  0
 12 15  1  0  0  0  0
 15 16  2  0  0  0  0
 15 17  1  0  0  0  0
 18 17  1  6  0  0  0
 18 19  1  0  0  0  0
 20 19  1  0  0  0  0
 20 21  1  6  0  0  0
 21 22  2  0  0  0  0
 21 23  1  0  0  0  0
 24 20  1  0  0  0  0
 24 25  1  1  0  0  0
 24 26  1  0  0  0  0
 26 27  1  6  0  0  0
 26 28  1  0  0  0  0
 28 18  1  0  0  0  0
 28 29  1  1  0  0  0
  7 30  4  0  0  0  0
  2 30  4  0  0  0  0
M  END
>  <CdId>
58

>  <Mol Weight>
426.462

>  <Formula>
C21H30O9

>  <Molecule ChEMBL ID>
CHEMBL2181817

>  <Molecule Max Phase>
None

>  <Molecular Weight>
426.46

>  <#RO5 Violations>
0

>  <AlogP>
0.92

>  <Compound Key>
Fig 8, cpd 2

>  <Standard Type>
IC50

>  <Standard Relation>
'='

>  <Standard Value>
24000.0

>  <Standard Units>
nM

$$$$

  Mrv2114 03112311372D          

 30 31  0  0  1  0            999 V2000
    2.8579   -4.9500    0.0000 C   0  0  0  0  0  0  0  0  0  0  0  0
    2.8579   -5.7750    0.0000 C   0  0  0  0  0  0  0  0  0  0  0  0
    3.5724   -6.1875    0.0000 C   0  0  0  0  0  0  0  0  0  0  0  0
    3.5724   -7.0125    0.0000 C   0  0  0  0  0  0  0  0  0  0  0  0
    2.8579   -7.4250    0.0000 C   0  0  0  0  0  0  0  0  0  0  0  0
    2.8579   -8.2500    0.0000 C   0  0  0  0  0  0  0  0  0  0  0  0
    2.1434   -7.0125    0.0000 C   0  0  0  0  0  0  0  0  0  0  0  0
    1.4289   -7.4250    0.0000 O   0  0  0  0  0  0  0  0  0  0  0  0
    1.4289   -8.2500    0.0000 C   0  0  0  0  0  0  0  0  0  0  0  0
    0.7145   -8.6625    0.0000 C   0  0  0  0  0  0  0  0  0  0  0  0
    0.7145   -9.4875    0.0000 C   0  0  0  0  0  0  0  0  0  0  0  0
    0.0000   -9.9000    0.0000 C   0  0  0  0  0  0  0  0  0  0  0  0
   -0.4125   -9.1855    0.0000 C   0  0  0  0  0  0  0  0  0  0  0  0
    0.4125  -10.6145    0.0000 C   0  0  0  0  0  0  0  0  0  0  0  0
   -0.7145  -10.3125    0.0000 C   0  0  0  0  0  0  0  0  0  0  0  0
   -1.4289   -9.9000    0.0000 O   0  0  0  0  0  0  0  0  0  0  0  0
   -0.7145  -11.1375    0.0000 O   0  0  0  0  0  0  0  0  0  0  0  0
   -1.4289  -11.5500    0.0000 C   0  0  2  0  0  0  0  0  0  0  0  0
   -1.4289  -12.3750    0.0000 O   0  0  0  0  0  0  0  0  0  0  0  0
   -2.1434  -12.7875    0.0000 C   0  0  2  0  0  0  0  0  0  0  0  0
   -2.1434  -13.6125    0.0000 C   0  0  0  0  0  0  0  0  0  0  0  0
   -1.4289  -14.0250    0.0000 O   0  0  0  0  0  0  0  0  0  0  0  0
   -2.8579  -14.0250    0.0000 O   0  0  0  0  0  0  0  0  0  0  0  0
   -2.8579  -12.3750    0.0000 C   0  0  1  0  0  0  0  0  0  0  0  0
   -3.5724  -12.7875    0.0000 O   0  0  0  0  0  0  0  0  0  0  0  0
   -2.8579  -11.5500    0.0000 C   0  0  2  0  0  0  0  0  0  0  0  0
   -3.5724  -11.1375    0.0000 O   0  0  0  0  0  0  0  0  0  0  0  0
   -2.1434  -11.1375    0.0000 C   0  0  1  0  0  0  0  0  0  0  0  0
   -2.1434  -10.3125    0.0000 O   0  0  0  0  0  0  0  0  0  0  0  0
    2.1434   -6.1875    0.0000 C   0  0  0  0  0  0  0  0  0  0  0  0
  1  2  1  0  0  0  0
  2  3  4  0  0  0  0
  3  4  4  0  0  0  0
  4  5  4  0  0  0  0
  5  6  1  0  0  0  0
  5  7  4  0  0  0  0
  7  8  1  0  0  0  0
  8  9  1  0  0  0  0
  9 10  1  0  0  0  0
 10 11  1  0  0  0  0
 11 12  1  0  0  0  0
 12 13  1  0  0  0  0
 12 14  1  0  0  0  0
 12 15  1  0  0  0  0
 15 16  2  0  0  0  0
 15 17  1  0  0  0  0
 18 17  1  6  0  0  0
 18 19  1  0  0  0  0
 20 19  1  0  0  0  0
 20 21  1  6  0  0  0
 21 22  2  0  0  0  0
 21 23  1  0  0  0  0
 24 20  1  0  0  0  0
 24 25  1  1  0  0  0
 24 26  1  0  0  0  0
 26 27  1  6  0  0  0
 26 28  1  0  0  0  0
 28 18  1  0  0  0  0
 28 29  1  1  0  0  0
  7 30  4  0  0  0  0
  2 30  4  0  0  0  0
M  END
>  <CdId>
59

>  <Mol Weight>
426.462

>  <Formula>
C21H30O9

>  <Molecule ChEMBL ID>
CHEMBL2181817

>  <Molecule Max Phase>
None

>  <Molecular Weight>
426.46

>  <#RO5 Violations>
0

>  <AlogP>
0.92

>  <Compound Key>
Fig 8, cpd 2

>  <Standard Type>
IC50

>  <Standard Relation>
'='

>  <Standard Value>
1800.0

>  <Standard Units>
nM

$$$$

  Mrv2114 03112311372D          

 42 47  0  0  1  0            999 V2000
   -0.7145    1.2375    0.0000 C   0  0  0  0  0  0  0  0  0  0  0  0
   -0.7145    2.0625    0.0000 C   0  0  0  0  0  0  0  0  0  0  0  0
   -1.4289    2.4750    0.0000 N   0  0  0  0  0  0  0  0  0  0  0  0
   -1.4289    3.3000    0.0000 C   0  0  0  0  0  0  0  0  0  0  0  0
   -2.1434    3.7125    0.0000 O   0  0  0  0  0  0  0  0  0  0  0  0
   -2.1434    4.5375    0.0000 C   0  0  0  0  0  0  0  0  0  0  0  0
   -2.8579    4.9500    0.0000 C   0  0  0  0  0  0  0  0  0  0  0  0
   -2.8579    5.7750    0.0000 C   0  0  0  0  0  0  0  0  0  0  0  0
   -2.1434    6.1875    0.0000 C   0  0  0  0  0  0  0  0  0  0  0  0
   -2.1434    7.0125    0.0000 C   0  0  0  0  0  0  0  0  0  0  0  0
   -1.4289    7.4250    0.0000 O   0  0  0  0  0  0  0  0  0  0  0  0
   -2.8579    7.4250    0.0000 O   0  0  0  0  0  0  0  0  0  0  0  0
   -1.4289    5.7750    0.0000 C   0  0  0  0  0  0  0  0  0  0  0  0
   -1.4289    4.9500    0.0000 C   0  0  0  0  0  0  0  0  0  0  0  0
   -0.7145    3.7125    0.0000 C   0  0  0  0  0  0  0  0  0  0  0  0
   -0.0000    3.3000    0.0000 C   0  0  0  0  0  0  0  0  0  0  0  0
    0.0000    2.4750    0.0000 C   0  0  0  0  0  0  0  0  0  0  0  0
    0.7145    2.0625    0.0000 C   0  0  0  0  0  0  0  0  0  0  0  0
    0.7145    1.2375    0.0000 N   0  0  0  0  0  0  0  0  0  0  0  0
    1.4289    0.8250    0.0000 C   0  0  0  0  0  0  0  0  0  0  0  0
    1.4289   -0.0000    0.0000 C   0  0  0  0  0  0  0  0  0  0  0  0
    0.7145   -0.4125    0.0000 C   0  0  0  0  0  0  0  0  0  0  0  0
    0.7145   -1.2375    0.0000 N   0  0  0  0  0  0  0  0  0  0  0  0
    1.3819   -1.7224    0.0000 C   0  0  0  0  0  0  0  0  0  0  0  0
    2.1665   -1.4675    0.0000 O   0  0  0  0  0  0  0  0  0  0  0  0
    1.1270   -2.5070    0.0000 N   0  0  0  0  0  0  0  0  0  0  0  0
    1.6119   -3.1745    0.0000 C   0  0  0  0  0  0  0  0  0  0  0  0
    2.4324   -3.0882    0.0000 C   0  0  0  0  0  0  0  0  0  0  0  0
    2.9173   -3.7557    0.0000 C   0  0  0  0  0  0  0  0  0  0  0  0
    2.5817   -4.5094    0.0000 O   0  0  0  0  0  0  0  0  0  0  0  0
    1.7613   -4.5956    0.0000 C   0  0  0  0  0  0  0  0  0  0  0  0
    1.2763   -3.9282    0.0000 C   0  0  0  0  0  0  0  0  0  0  0  0
    0.3020   -2.5070    0.0000 C   0  0  0  0  0  0  0  0  0  0  0  0
    0.0470   -1.7224    0.0000 C   0  0  1  0  0  0  0  0  0  0  0  0
   -0.7376   -1.4675    0.0000 C   0  0  0  0  0  0  0  0  0  0  0  0
   -1.3507   -2.0195    0.0000 C   0  0  0  0  0  0  0  0  0  0  0  0
   -2.1353   -1.7646    0.0000 C   0  0  0  0  0  0  0  0  0  0  0  0
   -2.3068   -0.9576    0.0000 C   0  0  0  0  0  0  0  0  0  0  0  0
   -1.6937   -0.4056    0.0000 C   0  0  0  0  0  0  0  0  0  0  0  0
   -0.9091   -0.6605    0.0000 C   0  0  0  0  0  0  0  0  0  0  0  0
    0.0000   -0.0000    0.0000 C   0  0  0  0  0  0  0  0  0  0  0  0
    0.0000    0.8250    0.0000 C   0  0  0  0  0  0  0  0  0  0  0  0
  1  2  1  0  0  0  0
  2  3  4  0  0  0  0
  3  4  4  0  0  0  0
  4  5  1  0  0  0  0
  5  6  1  0  0  0  0
  6  7  4  0  0  0  0
  7  8  4  0  0  0  0
  8  9  4  0  0  0  0
  9 10  1  0  0  0  0
 10 11  2  0  0  0  0
 10 12  1  0  0  0  0
  9 13  4  0  0  0  0
 13 14  4  0  0  0  0
  6 14  4  0  0  0  0
  4 15  4  0  0  0  0
 15 16  4  0  0  0  0
 16 17  4  0  0  0  0
  2 17  4  0  0  0  0
 17 18  1  0  0  0  0
 18 19  1  0  0  0  0
 19 20  1  0  0  0  0
 20 21  1  0  0  0  0
 21 22  1  0  0  0  0
 22 23  1  0  0  0  0
 23 24  1  0  0  0  0
 24 25  2  0  0  0  0
 24 26  1  0  0  0  0
 26 27  1  0  0  0  0
 27 28  1  0  0  0  0
 28 29  1  0  0  0  0
 29 30  1  0  0  0  0
 30 31  1  0  0  0  0
 31 32  1  0  0  0  0
 27 32  1  0  0  0  0
 26 33  1  0  0  0  0
 34 33  1  0  0  0  0
 34 23  1  0  0  0  0
 34 35  1  1  0  0  0
 35 36  4  0  0  0  0
 36 37  4  0  0  0  0
 37 38  4  0  0  0  0
 38 39  4  0  0  0  0
 39 40  4  0  0  0  0
 35 40  4  0  0  0  0
 22 41  1  0  0  0  0
 41 42  1  0  0  0  0
 19 42  1  0  0  0  0
M  END
>  <CdId>
60

>  <Mol Weight>
570.69

>  <Formula>
C33H38N4O5

>  <Molecule ChEMBL ID>
CHEMBL2435852

>  <Molecule Max Phase>
None

>  <Molecular Weight>
570.69

>  <#RO5 Violations>
2

>  <AlogP>
5.5

>  <Compound Key>
6d

>  <Standard Type>
IC50

>  <Standard Relation>
'>'

>  <Standard Value>
40000.0

>  <Standard Units>
nM

$$$$

  Mrv2114 03112311372D          

 30 33  0  0  1  0            999 V2000
    5.3641   -0.1057    0.0000 C   0  0  0  0  0  0  0  0  0  0  0  0
    4.7321   -0.6360    0.0000 C   0  0  0  0  0  0  0  0  0  0  0  0
    4.8754   -1.4484    0.0000 N   0  0  0  0  0  0  0  0  0  0  0  0
    4.2434   -1.9787    0.0000 C   0  0  0  0  0  0  0  0  0  0  0  0
    3.4682   -1.6966    0.0000 C   0  0  0  0  0  0  0  0  0  0  0  0
    2.8362   -2.2269    0.0000 O   0  0  0  0  0  0  0  0  0  0  0  0
    2.0609   -1.9447    0.0000 C   0  0  0  0  0  0  0  0  0  0  0  0
    1.4289   -2.4750    0.0000 C   0  0  1  0  0  0  0  0  0  0  0  0
    0.7970   -1.9447    0.0000 C   0  0  0  0  0  0  0  0  0  0  0  0
    0.0217   -2.2269    0.0000 C   0  0  0  0  0  0  0  0  0  0  0  0
   -0.6103   -1.6966    0.0000 C   0  0  0  0  0  0  0  0  0  0  0  0
   -0.4670   -0.8841    0.0000 C   0  0  0  0  0  0  0  0  0  0  0  0
    0.3082   -0.6019    0.0000 C   0  0  0  0  0  0  0  0  0  0  0  0
    0.4515    0.2105    0.0000 F   0  0  0  0  0  0  0  0  0  0  0  0
    0.9402   -1.1322    0.0000 C   0  0  0  0  0  0  0  0  0  0  0  0
    1.8414   -3.1895    0.0000 C   0  0  0  0  0  0  0  0  0  0  0  0
    1.0164   -3.1895    0.0000 C   0  0  1  0  0  0  0  0  0  0  0  0
    0.3020   -3.6020    0.0000 C   0  0  0  0  0  0  0  0  0  0  0  0
   -0.4125   -3.1895    0.0000 O   0  0  0  0  0  0  0  0  0  0  0  0
    0.3020   -4.4270    0.0000 N   0  0  0  0  0  0  0  0  0  0  0  0
   -0.4125   -4.8395    0.0000 C   0  0  0  0  0  0  0  0  0  0  0  0
   -0.4125   -5.6645    0.0000 C   0  0  0  0  0  0  0  0  0  0  0  0
   -1.1270   -6.0770    0.0000 C   0  0  0  0  0  0  0  0  0  0  0  0
   -1.8414   -5.6645    0.0000 C   0  0  0  0  0  0  0  0  0  0  0  0
   -2.5559   -6.0770    0.0000 F   0  0  0  0  0  0  0  0  0  0  0  0
   -1.8414   -4.8395    0.0000 C   0  0  0  0  0  0  0  0  0  0  0  0
   -1.1270   -4.4270    0.0000 N   0  0  0  0  0  0  0  0  0  0  0  0
    3.3249   -0.8841    0.0000 C   0  0  0  0  0  0  0  0  0  0  0  0
    2.5497   -0.6019    0.0000 C   0  0  0  0  0  0  0  0  0  0  0  0
    3.9569   -0.3538    0.0000 N   0  0  0  0  0  0  0  0  0  0  0  0
  1  2  1  0  0  0  0
  2  3  4  0  0  0  0
  3  4  4  0  0  0  0
  4  5  4  0  0  0  0
  5  6  1  0  0  0  0
  6  7  1  0  0  0  0
  8  7  1  1  0  0  0
  8  9  1  6  0  0  0
  9 10  4  0  0  0  0
 10 11  4  0  0  0  0
 11 12  4  0  0  0  0
 12 13  4  0  0  0  0
 13 14  1  0  0  0  0
 13 15  4  0  0  0  0
  9 15  4  0  0  0  0
  8 16  1  0  0  0  0
 17 16  1  0  0  0  0
  8 17  1  0  0  0  0
 17 18  1  1  0  0  0
 18 19  2  0  0  0  0
 18 20  1  0  0  0  0
 20 21  1  0  0  0  0
 21 22  4  0  0  0  0
 22 23  4  0  0  0  0
 23 24  4  0  0  0  0
 24 25  1  0  0  0  0
 24 26  4  0  0  0  0
 26 27  4  0  0  0  0
 21 27  4  0  0  0  0
  5 28  4  0  0  0  0
 28 29  1  0  0  0  0
 28 30  4  0  0  0  0
  2 30  4  0  0  0  0
M  END
>  <CdId>
61

>  <Mol Weight>
410.425

>  <Formula>
C22H20F2N4O2

>  <Molecule ChEMBL ID>
CHEMBL3545367

>  <Molecule Name>
LEMBOREXANT

>  <Molecule Max Phase>
4

>  <Molecular Weight>
410.42

>  <#RO5 Violations>
0

>  <AlogP>
3.74

>  <Compound Key>
34, E2006

>  <Standard Type>
IC50

>  <Standard Relation>
'>'

>  <Standard Value>
20000.0

>  <Standard Units>
nM

$$$$

  Mrv2114 03112311372D          

 17 16  0  0  0  0            999 V2000
   -1.8080    0.9824    0.0000 C   0  0  0  0  0  0  0  0  0  0  0  0
   -1.0935    0.5699    0.0000 O   0  0  0  0  0  0  0  0  0  0  0  0
   -0.3790    0.9824    0.0000 C   0  0  0  0  0  0  0  0  0  0  0  0
   -0.3790    1.8074    0.0000 C   0  0  0  0  0  0  0  0  0  0  0  0
    0.3354    2.2199    0.0000 C   0  0  0  0  0  0  0  0  0  0  0  0
    1.0499    1.8074    0.0000 N   0  0  0  0  0  0  0  0  0  0  0  0
    1.0499    0.9824    0.0000 C   0  0  0  0  0  0  0  0  0  0  0  0
    0.3354    0.5699    0.0000 C   0  0  0  0  0  0  0  0  0  0  0  0
    0.3354   -0.2551    0.0000 C   0  0  0  0  0  0  0  0  0  0  0  0
    1.0029   -0.7400    0.0000 C   0  0  0  0  0  0  0  0  0  0  0  0
    0.7479   -1.5246    0.0000 C   0  0  0  0  0  0  0  0  0  0  0  0
   -0.0771   -1.5246    0.0000 C   0  0  0  0  0  0  0  0  0  0  0  0
   -0.5620   -2.1920    0.0000 C   0  0  0  0  0  0  0  0  0  0  0  0
   -0.2264   -2.9457    0.0000 N   0  0  0  0  0  0  0  0  0  0  0  0
   -0.3320   -0.7400    0.0000 O   0  0  0  0  0  0  0  0  0  0  0  0
    3.0535    0.0000    0.0000 Cl  0  0  0  0  0  0  0  0  0  0  0  0
    0.0000   -4.5957    0.0000 Cl  0  0  0  0  0  0  0  0  0  0  0  0
  1  2  1  0  0  0  0
  2  3  1  0  0  0  0
  3  4  4  0  0  0  0
  4  5  4  0  0  0  0
  5  6  4  0  0  0  0
  6  7  4  0  0  0  0
  7  8  4  0  0  0  0
  3  8  4  0  0  0  0
  8  9  1  0  0  0  0
  9 10  4  0  0  0  0
 10 11  4  0  0  0  0
 11 12  4  0  0  0  0
 12 13  1  0  0  0  0
 13 14  1  0  0  0  0
 12 15  4  0  0  0  0
  9 15  4  0  0  0  0
M  END
>  <CdId>
62

>  <Mol Weight>
277.15

>  <Formula>
C11H14Cl2N2O2

>  <Molecule ChEMBL ID>
CHEMBL4162449

>  <Molecule Max Phase>
None

>  <Molecular Weight>
277.15

>  <#RO5 Violations>
0

>  <AlogP>
1.81

>  <Compound Key>
5j

>  <Standard Type>
IC50

>  <Standard Relation>
'='

>  <Standard Value>
16000.0

>  <Standard Units>
nM

$$$$

  Mrv2114 03112311372D          

 32 35  0  0  0  0            999 V2000
   -2.0367    2.0009    0.0000 O   0  0  0  0  0  0  0  0  0  0  0  0
   -1.3222    2.4134    0.0000 C   0  0  0  0  0  0  0  0  0  0  0  0
   -0.6078    2.0009    0.0000 N   0  0  0  0  0  0  0  0  0  0  0  0
   -0.6078    1.1759    0.0000 C   0  0  0  0  0  0  0  0  0  0  0  0
    0.1067    0.7634    0.0000 C   0  0  0  0  0  0  0  0  0  0  0  0
    0.1067   -0.0616    0.0000 C   0  0  0  0  0  0  0  0  0  0  0  0
   -0.6078   -0.4741    0.0000 N   0  0  0  0  0  0  0  0  0  0  0  0
   -0.6078   -1.2991    0.0000 C   0  0  0  0  0  0  0  0  0  0  0  0
    0.0597   -1.7840    0.0000 C   0  0  0  0  0  0  0  0  0  0  0  0
   -0.1953   -2.5687    0.0000 N   0  0  0  0  0  0  0  0  0  0  0  0
   -1.0203   -2.5687    0.0000 C   0  0  0  0  0  0  0  0  0  0  0  0
   -1.5052   -3.2361    0.0000 C   0  0  0  0  0  0  0  0  0  0  0  0
   -2.3257   -3.1499    0.0000 O   0  0  0  0  0  0  0  0  0  0  0  0
   -1.1696   -3.9898    0.0000 C   0  0  0  0  0  0  0  0  0  0  0  0
   -0.3491   -4.0760    0.0000 C   0  0  0  0  0  0  0  0  0  0  0  0
   -0.0136   -4.8297    0.0000 C   0  0  0  0  0  0  0  0  0  0  0  0
   -0.4985   -5.4971    0.0000 C   0  0  0  0  0  0  0  0  0  0  0  0
   -1.3190   -5.4109    0.0000 C   0  0  0  0  0  0  0  0  0  0  0  0
   -1.8039   -6.0783    0.0000 C   0  0  0  0  0  0  0  0  0  0  0  0
   -2.2888   -6.7458    0.0000 F   0  0  0  0  0  0  0  0  0  0  0  0
   -1.1365   -6.5632    0.0000 F   0  0  0  0  0  0  0  0  0  0  0  0
   -2.4714   -5.5934    0.0000 F   0  0  0  0  0  0  0  0  0  0  0  0
   -1.6546   -4.6572    0.0000 C   0  0  0  0  0  0  0  0  0  0  0  0
   -1.2752   -1.7840    0.0000 N   0  0  0  0  0  0  0  0  0  0  0  0
   -1.3222   -0.0616    0.0000 C   0  0  0  0  0  0  0  0  0  0  0  0
   -2.0367   -0.4741    0.0000 O   0  0  0  0  0  0  0  0  0  0  0  0
   -1.3222    0.7634    0.0000 C   0  0  0  0  0  0  0  0  0  0  0  0
   -1.3222    3.2384    0.0000 C   0  0  0  0  0  0  0  0  0  0  0  0
   -1.9897    3.7233    0.0000 C   0  0  0  0  0  0  0  0  0  0  0  0
   -1.7347    4.5079    0.0000 S   0  0  0  0  0  0  0  0  0  0  0  0
   -0.9097    4.5079    0.0000 C   0  0  0  0  0  0  0  0  0  0  0  0
   -0.6548    3.7233    0.0000 N   0  0  0  0  0  0  0  0  0  0  0  0
  1  2  2  0  0  0  0
  2  3  1  0  0  0  0
  3  4  1  0  0  0  0
  4  5  4  0  0  0  0
  5  6  4  0  0  0  0
  6  7  4  0  0  0  0
  7  8  1  0  0  0  0
  8  9  4  0  0  0  0
  9 10  4  0  0  0  0
 10 11  4  0  0  0  0
 11 12  1  0  0  0  0
 12 13  1  0  0  0  0
 12 14  1  0  0  0  0
 14 15  4  0  0  0  0
 15 16  4  0  0  0  0
 16 17  4  0  0  0  0
 17 18  4  0  0  0  0
 18 19  1  0  0  0  0
 19 20  1  0  0  0  0
 19 21  1  0  0  0  0
 19 22  1  0  0  0  0
 18 23  4  0  0  0  0
 14 23  4  0  0  0  0
 11 24  4  0  0  0  0
  8 24  4  0  0  0  0
  7 25  4  0  0  0  0
 25 26  2  0  0  0  0
 25 27  4  0  0  0  0
  4 27  4  0  0  0  0
  2 28  1  0  0  0  0
 28 29  4  0  0  0  0
 29 30  4  0  0  0  0
 30 31  4  0  0  0  0
 31 32  4  0  0  0  0
 28 32  4  0  0  0  0
M  STY  1   1 DAT
M  SAL   1  1  10
M  SDT   1 MRV_IMPLICIT_H                                        
M  SDD   1     0.0000    0.0000    DR    ALL  0       0  
M  SED   1 IMPL_H1
M  END
>  <CdId>
63

>  <Mol Weight>
461.42

>  <Formula>
C20H14F3N5O3S

>  <Molecule ChEMBL ID>
CHEMBL3809890

>  <Molecule Max Phase>
None

>  <Molecular Weight>
461.43

>  <#RO5 Violations>
0

>  <AlogP>
3.37

>  <Compound Key>
23

>  <Standard Type>
IC50

>  <Standard Relation>
'='

>  <Standard Value>
4300.0

>  <Standard Units>
nM

$$$$

  Mrv2114 03112311372D          

 50 56  0  0  1  0            999 V2000
    4.6319    5.0066    0.0000 C   0  0  0  0  0  0  0  0  0  0  0  0
    4.2963    4.2529    0.0000 S   0  0  0  0  0  0  0  0  0  0  0  0
    4.7812    3.5854    0.0000 C   0  0  1  0  0  0  0  0  0  0  0  0
    4.0668    3.1729    0.0000 C   0  0  0  0  0  0  0  0  0  0  0  0
    3.3523    3.5854    0.0000 O   0  0  0  0  0  0  0  0  0  0  0  0
    4.0668    2.3479    0.0000 N   0  0  0  0  0  0  0  0  0  0  0  0
    3.3523    1.9354    0.0000 C   0  0  0  0  0  0  0  0  0  0  0  0
    3.3523    1.1104    0.0000 C   0  0  0  0  0  0  0  0  0  0  0  0
    2.6378    0.6979    0.0000 C   0  0  0  0  0  0  0  0  0  0  0  0
    1.9233    1.1104    0.0000 C   0  0  0  0  0  0  0  0  0  0  0  0
    1.1387    0.8555    0.0000 N   0  0  0  0  0  0  0  0  0  0  0  0
    0.6538    1.5229    0.0000 N   0  0  0  0  0  0  0  0  0  0  0  0
    1.1387    2.1904    0.0000 C   0  0  0  0  0  0  0  0  0  0  0  0
    0.8838    2.9750    0.0000 C   0  0  0  0  0  0  0  0  0  0  0  0
    0.0768    3.1465    0.0000 C   0  0  0  0  0  0  0  0  0  0  0  0
   -0.1781    3.9312    0.0000 C   0  0  0  0  0  0  0  0  0  0  0  0
    0.3739    4.5442    0.0000 C   0  0  0  0  0  0  0  0  0  0  0  0
    0.1190    5.3289    0.0000 O   0  0  0  0  0  0  0  0  0  0  0  0
   -0.6880    5.5004    0.0000 C   0  0  0  0  0  0  0  0  0  0  0  0
   -1.2400    4.8873    0.0000 C   0  0  0  0  0  0  0  0  0  0  0  0
   -0.9429    6.2850    0.0000 C   0  0  0  0  0  0  0  0  0  0  0  0
    1.1809    4.3727    0.0000 N   0  0  0  0  0  0  0  0  0  0  0  0
    1.4358    3.5881    0.0000 C   0  0  0  0  0  0  0  0  0  0  0  0
    1.9233    1.9354    0.0000 C   0  0  0  0  0  0  0  0  0  0  0  0
    2.6378    2.3479    0.0000 C   0  0  0  0  0  0  0  0  0  0  0  0
    5.3943    4.1375    0.0000 C   0  0  0  0  0  0  0  0  0  0  0  0
    6.1088    3.7250    0.0000 C   0  0  0  0  0  0  0  0  0  0  0  0
    5.9373    2.9180    0.0000 N   0  0  0  0  0  0  0  0  0  0  0  0
    6.4893    2.3049    0.0000 C   0  0  0  0  0  0  0  0  0  0  0  0
    7.2963    2.4764    0.0000 C   0  0  0  0  0  0  0  0  0  0  0  0
    7.5512    3.2611    0.0000 O   0  0  0  0  0  0  0  0  0  0  0  0
    7.8483    1.8633    0.0000 N   0  0  0  0  0  0  0  0  0  0  0  0
    8.6553    2.0349    0.0000 C   0  0  0  0  0  0  0  0  0  0  0  0
    9.2073    1.4218    0.0000 C   0  0  0  0  0  0  0  0  0  0  0  0
    8.9524    0.6372    0.0000 C   0  0  0  0  0  0  0  0  0  0  0  0
    9.5044    0.0241    0.0000 C   0  0  0  0  0  0  0  0  0  0  0  0
   10.3114    0.1956    0.0000 C   0  0  0  0  0  0  0  0  0  0  0  0
   10.8634   -0.4175    0.0000 C   0  0  0  0  0  0  0  0  0  0  0  0
   10.6085   -1.2021    0.0000 C   0  0  0  0  0  0  0  0  0  0  0  0
   11.1605   -1.8152    0.0000 C   0  0  0  0  0  0  0  0  0  0  0  0
   11.9810   -1.7290    0.0000 N   0  0  0  0  0  0  0  0  0  0  0  0
   12.3165   -2.4827    0.0000 C   0  0  0  0  0  0  0  0  0  0  0  0
   11.7034   -3.0347    0.0000 N   0  0  0  0  0  0  0  0  0  0  0  0
   11.7897   -3.8552    0.0000 C   0  0  0  0  0  0  0  0  0  0  0  0
   10.9890   -2.6222    0.0000 N   0  0  0  0  0  0  0  0  0  0  0  0
    9.8015   -1.3737    0.0000 C   0  0  0  0  0  0  0  0  0  0  0  0
    9.2495   -0.7606    0.0000 C   0  0  0  0  0  0  0  0  0  0  0  0
    8.1454    0.4656    0.0000 C   0  0  0  0  0  0  0  0  0  0  0  0
    7.5934    1.0787    0.0000 C   0  0  0  0  0  0  0  0  0  0  0  0
    5.1168    2.8318    0.0000 C   0  0  0  0  0  0  0  0  0  0  0  0
  1  2  1  0  0  0  0
  3  2  1  1  0  0  0
  3  4  1  6  0  0  0
  4  5  2  0  0  0  0
  4  6  1  0  0  0  0
  6  7  1  0  0  0  0
  7  8  4  0  0  0  0
  8  9  4  0  0  0  0
  9 10  4  0  0  0  0
 10 11  4  0  0  0  0
 11 12  4  0  0  0  0
 12 13  4  0  0  0  0
 13 14  1  0  0  0  0
 14 15  4  0  0  0  0
 15 16  4  0  0  0  0
 16 17  4  0  0  0  0
 17 18  1  0  0  0  0
 18 19  1  0  0  0  0
 19 20  1  0  0  0  0
 19 21  1  0  0  0  0
 17 22  4  0  0  0  0
 22 23  4  0  0  0  0
 14 23  4  0  0  0  0
 13 24  4  0  0  0  0
 10 24  4  0  0  0  0
 24 25  4  0  0  0  0
  7 25  4  0  0  0  0
  3 26  1  0  0  0  0
 26 27  1  0  0  0  0
 27 28  1  0  0  0  0
 28 29  1  0  0  0  0
 29 30  1  0  0  0  0
 30 31  2  0  0  0  0
 30 32  1  0  0  0  0
 32 33  1  0  0  0  0
 33 34  1  0  0  0  0
 34 35  2  0  0  0  0
 35 36  1  0  0  0  0
 36 37  4  0  0  0  0
 37 38  4  0  0  0  0
 38 39  4  0  0  0  0
 39 40  1  0  0  0  0
 40 41  4  0  0  0  0
 41 42  4  0  0  0  0
 42 43  4  0  0  0  0
 43 44  1  0  0  0  0
 43 45  4  0  0  0  0
 40 45  4  0  0  0  0
 39 46  4  0  0  0  0
 46 47  4  0  0  0  0
 36 47  4  0  0  0  0
 35 48  1  0  0  0  0
 48 49  1  0  0  0  0
 32 49  1  0  0  0  0
 28 50  1  0  0  0  0
  3 50  1  0  0  0  0
M  STY  1   1 DAT
M  SAL   1  1  11
M  SDT   1 MRV_IMPLICIT_H                                        
M  SDD   1     0.0000    0.0000    DR    ALL  0       0  
M  SED   1 IMPL_H1
M  END
>  <CdId>
64

>  <Mol Weight>
691.86

>  <Formula>
C37H41N9O3S

>  <Molecule ChEMBL ID>
CHEMBL4213970

>  <Molecule Name>
MK-8353

>  <Molecule Max Phase>
1

>  <Molecular Weight>
691.86

>  <#RO5 Violations>
2

>  <AlogP>
5.27

>  <Compound Key>
20; MK-8353

>  <Standard Type>
IC50

>  <Standard Relation>
'>'

>  <Standard Value>
5000.0

>  <Standard Units>
nM

$$$$

  Mrv2114 03112311372D          

 52 55  0  0  1  0            999 V2000
    3.5724   -9.4875    0.0000 C   0  0  0  0  0  0  0  0  0  0  0  0
    3.5724   -8.6625    0.0000 C   0  0  0  0  0  0  0  0  0  0  0  0
    4.2868   -8.2500    0.0000 C   0  0  0  0  0  0  0  0  0  0  0  0
    2.8579   -8.2500    0.0000 C   0  0  0  0  0  0  0  0  0  0  0  0
    2.8579   -7.4250    0.0000 C   0  0  2  0  0  0  0  0  0  0  0  0
    2.1434   -7.0125    0.0000 N   0  0  0  0  0  0  0  0  0  0  0  0
    1.4289   -7.4250    0.0000 C   0  0  0  0  0  0  0  0  0  0  0  0
    1.4289   -8.2500    0.0000 O   0  0  0  0  0  0  0  0  0  0  0  0
    0.7145   -7.0125    0.0000 C   0  0  2  0  0  0  0  0  0  0  0  0
    0.7145   -6.1875    0.0000 C   0  0  0  0  0  0  0  0  0  0  0  0
    1.4289   -5.7750    0.0000 C   0  0  0  0  0  0  0  0  0  0  0  0
    1.4289   -4.9500    0.0000 C   0  0  0  0  0  0  0  0  0  0  0  0
    0.7145   -4.5375    0.0000 C   0  0  0  0  0  0  0  0  0  0  0  0
    0.7145   -3.7125    0.0000 C   0  0  0  0  0  0  0  0  0  0  0  0
    1.4289   -3.3000    0.0000 C   0  0  0  0  0  0  0  0  0  0  0  0
    2.1434   -3.7125    0.0000 C   0  0  0  0  0  0  0  0  0  0  0  0
    2.1434   -4.5375    0.0000 C   0  0  0  0  0  0  0  0  0  0  0  0
    0.0000   -7.4250    0.0000 N   0  0  0  0  0  0  0  0  0  0  0  0
   -0.7145   -7.0125    0.0000 C   0  0  0  0  0  0  0  0  0  0  0  0
   -0.7145   -6.1875    0.0000 O   0  0  0  0  0  0  0  0  0  0  0  0
   -1.4289   -7.4250    0.0000 C   0  0  0  0  0  0  0  0  0  0  0  0
   -2.1434   -7.0125    0.0000 N   0  0  0  0  0  0  0  0  0  0  0  0
   -2.8579   -7.4250    0.0000 C   0  0  0  0  0  0  0  0  0  0  0  0
   -3.5724   -7.0125    0.0000 C   0  0  0  0  0  0  0  0  0  0  0  0
   -3.5724   -6.1875    0.0000 O   0  0  0  0  0  0  0  0  0  0  0  0
   -2.8579   -5.7750    0.0000 C   0  0  0  0  0  0  0  0  0  0  0  0
   -2.1434   -6.1875    0.0000 C   0  0  0  0  0  0  0  0  0  0  0  0
    3.5724   -7.0125    0.0000 C   0  0  0  0  0  0  0  0  0  0  0  0
    3.5724   -6.1875    0.0000 O   0  0  0  0  0  0  0  0  0  0  0  0
    4.2868   -7.4250    0.0000 N   0  0  0  0  0  0  0  0  0  0  0  0
    5.0013   -7.0125    0.0000 C   0  0  1  0  0  0  0  0  0  0  0  0
    5.0013   -6.1875    0.0000 C   0  0  0  0  0  0  0  0  0  0  0  0
    5.7158   -5.7750    0.0000 C   0  0  0  0  0  0  0  0  0  0  0  0
    5.7158   -4.9500    0.0000 C   0  0  0  0  0  0  0  0  0  0  0  0
    6.4302   -4.5375    0.0000 C   0  0  0  0  0  0  0  0  0  0  0  0
    7.1447   -4.9500    0.0000 C   0  0  0  0  0  0  0  0  0  0  0  0
    7.1447   -5.7750    0.0000 C   0  0  0  0  0  0  0  0  0  0  0  0
    6.4302   -6.1875    0.0000 C   0  0  0  0  0  0  0  0  0  0  0  0
    5.7158   -7.4250    0.0000 C   0  0  0  0  0  0  0  0  0  0  0  0
    5.7158   -8.2500    0.0000 O   0  0  0  0  0  0  0  0  0  0  0  0
    6.4302   -7.0125    0.0000 N   0  0  0  0  0  0  0  0  0  0  0  0
    7.1447   -7.4250    0.0000 C   0  0  1  0  0  0  0  0  0  0  0  0
    7.8592   -7.0125    0.0000 C   0  0  0  0  0  0  0  0  0  0  0  0
    8.5737   -7.4250    0.0000 C   0  0  0  0  0  0  0  0  0  0  0  0
    9.2881   -7.0125    0.0000 C   0  0  0  0  0  0  0  0  0  0  0  0
    8.5737   -8.2500    0.0000 C   0  0  0  0  0  0  0  0  0  0  0  0
    7.1447   -8.2500    0.0000 C   0  0  0  0  0  0  0  0  0  0  0  0
    6.4302   -8.6625    0.0000 O   0  0  0  0  0  0  0  0  0  0  0  0
    7.8592   -8.6625    0.0000 C   0  0  1  0  0  0  0  0  0  0  0  0
    8.3895   -8.0305    0.0000 C   0  0  0  0  0  0  0  0  0  0  0  0
    7.5770   -9.4377    0.0000 C   0  0  0  0  0  0  0  0  0  0  0  0
    8.3895   -9.2945    0.0000 O   0  0  0  0  0  0  0  0  0  0  0  0
  1  2  1  0  0  0  0
  2  3  1  0  0  0  0
  2  4  1  0  0  0  0
  5  4  1  0  0  0  0
  5  6  1  6  0  0  0
  6  7  1  0  0  0  0
  7  8  2  0  0  0  0
  9  7  1  0  0  0  0
  9 10  1  0  0  0  0
 10 11  1  0  0  0  0
 11 12  1  0  0  0  0
 12 13  4  0  0  0  0
 13 14  4  0  0  0  0
 14 15  4  0  0  0  0
 15 16  4  0  0  0  0
 16 17  4  0  0  0  0
 12 17  4  0  0  0  0
  9 18  1  1  0  0  0
 18 19  1  0  0  0  0
 19 20  2  0  0  0  0
 19 21  1  0  0  0  0
 21 22  1  0  0  0  0
 22 23  1  0  0  0  0
 23 24  1  0  0  0  0
 24 25  1  0  0  0  0
 25 26  1  0  0  0  0
 26 27  1  0  0  0  0
 22 27  1  0  0  0  0
  5 28  1  0  0  0  0
 28 29  2  0  0  0  0
 28 30  1  0  0  0  0
 31 30  1  1  0  0  0
 31 32  1  0  0  0  0
 32 33  1  0  0  0  0
 33 34  4  0  0  0  0
 34 35  4  0  0  0  0
 35 36  4  0  0  0  0
 36 37  4  0  0  0  0
 37 38  4  0  0  0  0
 33 38  4  0  0  0  0
 31 39  1  0  0  0  0
 39 40  2  0  0  0  0
 39 41  1  0  0  0  0
 42 41  1  1  0  0  0
 42 43  1  0  0  0  0
 43 44  1  0  0  0  0
 44 45  1  0  0  0  0
 44 46  1  0  0  0  0
 42 47  1  0  0  0  0
 47 48  2  0  0  0  0
 49 47  1  6  0  0  0
 49 50  1  1  0  0  0
 49 51  1  0  0  0  0
 51 52  1  0  0  0  0
 49 52  1  0  0  0  0
M  END
>  <CdId>
65

>  <Mol Weight>
719.924

>  <Formula>
C40H57N5O7

>  <Molecule ChEMBL ID>
CHEMBL451887

>  <Molecule Name>
CARFILZOMIB

>  <Molecule Max Phase>
4

>  <Molecular Weight>
719.92

>  <#RO5 Violations>
1

>  <AlogP>
2.58

>  <Compound Key>
carfilzomib

>  <Standard Type>
IC50

>  <Standard Relation>
'>'

>  <Standard Value>
10000.0

>  <Standard Units>
nM

$$$$

  Mrv2114 03112311372D          

 32 35  0  0  0  0            999 V2000
    2.7512    0.7634    0.0000 C   0  0  0  0  0  0  0  0  0  0  0  0
    2.7512   -0.0616    0.0000 C   0  0  0  0  0  0  0  0  0  0  0  0
    3.4656   -0.4741    0.0000 C   0  0  0  0  0  0  0  0  0  0  0  0
    3.4656   -1.2991    0.0000 C   0  0  0  0  0  0  0  0  0  0  0  0
    2.7512   -1.7116    0.0000 C   0  0  0  0  0  0  0  0  0  0  0  0
    2.7512   -2.5366    0.0000 N   0  0  0  0  0  0  0  0  0  0  0  0
    2.0837   -3.0215    0.0000 N   0  0  0  0  0  0  0  0  0  0  0  0
    2.3387   -3.8062    0.0000 C   0  0  0  0  0  0  0  0  0  0  0  0
    1.8538   -4.4736    0.0000 C   0  0  0  0  0  0  0  0  0  0  0  0
    1.3688   -5.1410    0.0000 C   0  0  0  0  0  0  0  0  0  0  0  0
    1.1863   -3.9887    0.0000 C   0  0  0  0  0  0  0  0  0  0  0  0
    2.5212   -4.9585    0.0000 C   0  0  0  0  0  0  0  0  0  0  0  0
    3.1637   -3.8062    0.0000 C   0  0  0  0  0  0  0  0  0  0  0  0
    3.4186   -3.0215    0.0000 C   0  0  0  0  0  0  0  0  0  0  0  0
    4.2032   -2.7666    0.0000 N   0  0  0  0  0  0  0  0  0  0  0  0
    4.8163   -3.3186    0.0000 C   0  0  0  0  0  0  0  0  0  0  0  0
    4.6448   -4.1256    0.0000 O   0  0  0  0  0  0  0  0  0  0  0  0
    5.6010   -3.0637    0.0000 N   0  0  0  0  0  0  0  0  0  0  0  0
    6.2140   -3.6157    0.0000 C   0  0  0  0  0  0  0  0  0  0  0  0
    6.9987   -3.3608    0.0000 C   0  0  0  0  0  0  0  0  0  0  0  0
    7.6118   -3.9128    0.0000 C   0  0  0  0  0  0  0  0  0  0  0  0
    7.4402   -4.7198    0.0000 C   0  0  0  0  0  0  0  0  0  0  0  0
    8.0533   -5.2718    0.0000 C   0  0  0  0  0  0  0  0  0  0  0  0
    8.8603   -5.1003    0.0000 N   0  0  0  0  0  0  0  0  0  0  0  0
    9.2728   -5.8148    0.0000 N   0  0  0  0  0  0  0  0  0  0  0  0
    8.7208   -6.4279    0.0000 C   0  0  0  0  0  0  0  0  0  0  0  0
    7.9671   -6.0923    0.0000 N   0  0  0  0  0  0  0  0  0  0  0  0
    7.2526   -6.5048    0.0000 C   0  0  0  0  0  0  0  0  0  0  0  0
    6.6556   -4.9747    0.0000 C   0  0  0  0  0  0  0  0  0  0  0  0
    6.0425   -4.4227    0.0000 C   0  0  0  0  0  0  0  0  0  0  0  0
    2.0367   -1.2991    0.0000 C   0  0  0  0  0  0  0  0  0  0  0  0
    2.0367   -0.4741    0.0000 C   0  0  0  0  0  0  0  0  0  0  0  0
  1  2  1  0  0  0  0
  2  3  4  0  0  0  0
  3  4  4  0  0  0  0
  4  5  4  0  0  0  0
  5  6  1  0  0  0  0
  6  7  4  0  0  0  0
  7  8  4  0  0  0  0
  8  9  1  0  0  0  0
  9 10  1  0  0  0  0
  9 11  1  0  0  0  0
  9 12  1  0  0  0  0
  8 13  4  0  0  0  0
 13 14  4  0  0  0  0
  6 14  4  0  0  0  0
 14 15  1  0  0  0  0
 15 16  1  0  0  0  0
 16 17  2  0  0  0  0
 16 18  1  0  0  0  0
 18 19  1  0  0  0  0
 19 20  4  0  0  0  0
 20 21  4  0  0  0  0
 21 22  4  0  0  0  0
 22 23  1  0  0  0  0
 23 24  4  0  0  0  0
 24 25  4  0  0  0  0
 25 26  4  0  0  0  0
 26 27  4  0  0  0  0
 23 27  4  0  0  0  0
 27 28  1  0  0  0  0
 22 29  4  0  0  0  0
 29 30  4  0  0  0  0
 19 30  4  0  0  0  0
  5 31  4  0  0  0  0
 31 32  4  0  0  0  0
  2 32  4  0  0  0  0
M  END
>  <CdId>
66

>  <Mol Weight>
429.528

>  <Formula>
C24H27N7O

>  <Molecule ChEMBL ID>
CHEMBL2425155

>  <Molecule Max Phase>
None

>  <Molecular Weight>
429.53

>  <#RO5 Violations>
0

>  <AlogP>
4.92

>  <Compound Key>
26

>  <Standard Type>
IC50

>  <Standard Relation>
'>'

>  <Standard Value>
10000.0

>  <Standard Units>
nM

$$$$

  Mrv2114 03112311372D          

 19 21  0  0  0  0            999 V2000
    4.7812    1.9354    0.0000 C   0  0  0  0  0  0  0  0  0  0  0  0
    4.0668    2.3479    0.0000 O   0  0  0  0  0  0  0  0  0  0  0  0
    3.3523    1.9354    0.0000 C   0  0  0  0  0  0  0  0  0  0  0  0
    3.3523    1.1104    0.0000 C   0  0  0  0  0  0  0  0  0  0  0  0
    2.6378    0.6979    0.0000 C   0  0  0  0  0  0  0  0  0  0  0  0
    1.9233    1.1104    0.0000 C   0  0  0  0  0  0  0  0  0  0  0  0
    1.1387    0.8555    0.0000 N   0  0  0  0  0  0  0  0  0  0  0  0
    0.6538    1.5229    0.0000 C   0  0  0  0  0  0  0  0  0  0  0  0
   -0.1712    1.5229    0.0000 S   0  0  0  0  0  0  0  0  0  0  0  0
   -0.5837    0.8085    0.0000 C   0  0  0  0  0  0  0  0  0  0  0  0
   -1.4087    0.8085    0.0000 C   0  0  0  0  0  0  0  0  0  0  0  0
   -1.8212    0.0940    0.0000 C   0  0  0  0  0  0  0  0  0  0  0  0
   -2.6462    0.0940    0.0000 C   0  0  0  0  0  0  0  0  0  0  0  0
   -3.0587    0.8085    0.0000 C   0  0  0  0  0  0  0  0  0  0  0  0
   -2.6462    1.5229    0.0000 C   0  0  0  0  0  0  0  0  0  0  0  0
   -1.8212    1.5229    0.0000 N   0  0  0  0  0  0  0  0  0  0  0  0
    1.1387    2.1904    0.0000 N   0  0  0  0  0  0  0  0  0  0  0  0
    1.9233    1.9354    0.0000 C   0  0  0  0  0  0  0  0  0  0  0  0
    2.6378    2.3479    0.0000 C   0  0  0  0  0  0  0  0  0  0  0  0
  1  2  1  0  0  0  0
  2  3  1  0  0  0  0
  3  4  4  0  0  0  0
  4  5  4  0  0  0  0
  5  6  4  0  0  0  0
  6  7  4  0  0  0  0
  7  8  4  0  0  0  0
  8  9  1  0  0  0  0
  9 10  1  0  0  0  0
 10 11  1  0  0  0  0
 11 12  4  0  0  0  0
 12 13  4  0  0  0  0
 13 14  4  0  0  0  0
 14 15  4  0  0  0  0
 15 16  4  0  0  0  0
 11 16  4  0  0  0  0
  8 17  4  0  0  0  0
 17 18  4  0  0  0  0
  6 18  4  0  0  0  0
 18 19  4  0  0  0  0
  3 19  4  0  0  0  0
M  STY  1   1 DAT
M  SAL   1  1   7
M  SDT   1 MRV_IMPLICIT_H                                        
M  SDD   1     0.0000    0.0000    DR    ALL  0       0  
M  SED   1 IMPL_H1
M  END
>  <CdId>
67

>  <Mol Weight>
271.34

>  <Formula>
C14H13N3OS

>  <Molecule ChEMBL ID>
CHEMBL2019022

>  <Molecule Max Phase>
None

>  <Molecular Weight>
271.35

>  <#RO5 Violations>
0

>  <AlogP>
3.26

>  <Compound Key>
27

>  <Standard Type>
IC50

>  <Standard Relation>
'>'

>  <Standard Value>
50000.0

>  <Standard Units>
nM

$$$$

  Mrv2114 03112311372D          

 23 25  0  0  0  0            999 V2000
    0.0000   -1.6500    0.0000 C   0  0  0  0  0  0  0  0  0  0  0  0
    0.7145   -1.2375    0.0000 C   0  0  0  0  0  0  0  0  0  0  0  0
    0.7145   -0.4125    0.0000 C   0  0  0  0  0  0  0  0  0  0  0  0
    1.4289    0.0000    0.0000 C   0  0  0  0  0  0  0  0  0  0  0  0
    2.1434   -0.4125    0.0000 C   0  0  0  0  0  0  0  0  0  0  0  0
    2.8579    0.0000    0.0000 C   0  0  0  0  0  0  0  0  0  0  0  0
    2.8579    0.8250    0.0000 C   0  0  0  0  0  0  0  0  0  0  0  0
    3.5724    1.2375    0.0000 O   0  0  0  0  0  0  0  0  0  0  0  0
    2.1434    1.2375    0.0000 O   0  0  0  0  0  0  0  0  0  0  0  0
    3.5724   -0.4125    0.0000 C   0  0  0  0  0  0  0  0  0  0  0  0
    4.2868   -0.0000    0.0000 O   0  0  0  0  0  0  0  0  0  0  0  0
    3.5724   -1.2375    0.0000 C   0  0  0  0  0  0  0  0  0  0  0  0
    4.2868   -1.6500    0.0000 C   0  0  0  0  0  0  0  0  0  0  0  0
    5.0013   -1.2375    0.0000 C   0  0  0  0  0  0  0  0  0  0  0  0
    5.7158   -1.6500    0.0000 C   0  0  0  0  0  0  0  0  0  0  0  0
    5.7158   -2.4750    0.0000 C   0  0  0  0  0  0  0  0  0  0  0  0
    6.4302   -2.8875    0.0000 Cl  0  0  0  0  0  0  0  0  0  0  0  0
    5.0013   -2.8875    0.0000 C   0  0  0  0  0  0  0  0  0  0  0  0
    4.2868   -2.4750    0.0000 C   0  0  0  0  0  0  0  0  0  0  0  0
    2.8579   -1.6500    0.0000 N   0  0  0  0  0  0  0  0  0  0  0  0
    2.1434   -1.2375    0.0000 C   0  0  0  0  0  0  0  0  0  0  0  0
    1.4289   -1.6500    0.0000 C   0  0  0  0  0  0  0  0  0  0  0  0
    1.4289   -2.4750    0.0000 C   0  0  0  0  0  0  0  0  0  0  0  0
  1  2  1  0  0  0  0
  2  3  4  0  0  0  0
  3  4  4  0  0  0  0
  4  5  4  0  0  0  0
  5  6  4  0  0  0  0
  6  7  1  0  0  0  0
  7  8  2  0  0  0  0
  7  9  1  0  0  0  0
  6 10  4  0  0  0  0
 10 11  1  0  0  0  0
 10 12  4  0  0  0  0
 12 13  1  0  0  0  0
 13 14  4  0  0  0  0
 14 15  4  0  0  0  0
 15 16  4  0  0  0  0
 16 17  1  0  0  0  0
 16 18  4  0  0  0  0
 18 19  4  0  0  0  0
 13 19  4  0  0  0  0
 12 20  4  0  0  0  0
 20 21  4  0  0  0  0
  5 21  4  0  0  0  0
 21 22  4  0  0  0  0
  2 22  4  0  0  0  0
 22 23  1  0  0  0  0
M  END
>  <CdId>
68

>  <Mol Weight>
327.76

>  <Formula>
C18H14ClNO3

>  <Molecule ChEMBL ID>
CHEMBL267210

>  <Molecule Max Phase>
None

>  <Molecular Weight>
327.77

>  <#RO5 Violations>
0

>  <AlogP>
4.58

>  <Compound Key>
91

>  <Standard Type>
IC50

>  <Standard Relation>
'='

>  <Standard Value>
9000.0

>  <Standard Units>
nM

$$$$

  Mrv2114 03112311372D          

 35 38  0  0  1  0            999 V2000
    0.0000    0.0000    0.0000 Cl  0  0  0  0  0  0  0  0  0  0  0  0
    4.4041    1.5078    0.0000 C   0  0  0  0  0  0  0  0  0  0  0  0
    4.7941    0.7808    0.0000 N   0  0  0  0  0  0  0  0  0  0  0  0
    5.6187    0.7551    0.0000 C   0  0  0  0  0  0  0  0  0  0  0  0
    6.0533    1.4563    0.0000 O   0  0  0  0  0  0  0  0  0  0  0  0
    6.0087    0.0280    0.0000 C   0  0  0  0  0  0  0  0  0  0  0  0
    5.5741   -0.6732    0.0000 C   0  0  0  0  0  0  0  0  0  0  0  0
    6.1067   -1.3032    0.0000 N   0  0  0  0  0  0  0  0  0  0  0  0
    6.8705   -0.9914    0.0000 C   0  0  0  0  0  0  0  0  0  0  0  0
    7.5717   -1.4260    0.0000 N   0  0  0  0  0  0  0  0  0  0  0  0
    7.5460   -2.2506    0.0000 C   0  0  0  0  0  0  0  0  0  0  0  0
    8.2472   -2.6852    0.0000 C   0  0  0  0  0  0  0  0  0  0  0  0
    8.9742   -2.2952    0.0000 C   0  0  0  0  0  0  0  0  0  0  0  0
    9.0000   -1.4706    0.0000 C   0  0  1  0  0  0  0  0  0  0  0  0
    9.7270   -1.0806    0.0000 N   0  0  0  0  0  0  0  0  0  0  0  0
    8.2987   -1.0360    0.0000 C   0  0  0  0  0  0  0  0  0  0  0  0
    6.8099   -0.1686    0.0000 N   0  0  0  0  0  0  0  0  0  0  0  0
    7.4400    0.3640    0.0000 C   0  0  0  0  0  0  0  0  0  0  0  0
    7.2937    1.1760    0.0000 C   0  0  0  0  0  0  0  0  0  0  0  0
    6.5174    1.4553    0.0000 C   0  0  0  0  0  0  0  0  0  0  0  0
    6.3712    2.2672    0.0000 C   0  0  0  0  0  0  0  0  0  0  0  0
    5.5949    2.5465    0.0000 F   0  0  0  0  0  0  0  0  0  0  0  0
    7.0012    2.7998    0.0000 C   0  0  0  0  0  0  0  0  0  0  0  0
    7.7775    2.5205    0.0000 C   0  0  0  0  0  0  0  0  0  0  0  0
    7.9237    1.7086    0.0000 C   0  0  0  0  0  0  0  0  0  0  0  0
    8.7000    1.4293    0.0000 Cl  0  0  0  0  0  0  0  0  0  0  0  0
    4.7495   -0.6474    0.0000 C   0  0  0  0  0  0  0  0  0  0  0  0
    4.3149   -1.3487    0.0000 C   0  0  0  0  0  0  0  0  0  0  0  0
    3.4903   -1.3229    0.0000 C   0  0  0  0  0  0  0  0  0  0  0  0
    3.1003   -0.5959    0.0000 C   0  0  0  0  0  0  0  0  0  0  0  0
    2.2757   -0.5701    0.0000 C   0  0  0  0  0  0  0  0  0  0  0  0
    1.8411   -1.2714    0.0000 O   0  0  0  0  0  0  0  0  0  0  0  0
    1.8857    0.1569    0.0000 O   0  0  0  0  0  0  0  0  0  0  0  0
    3.5349    0.1053    0.0000 C   0  0  0  0  0  0  0  0  0  0  0  0
    4.3595    0.0796    0.0000 C   0  0  0  0  0  0  0  0  0  0  0  0
  2  3  1  0  0  0  0
  3  4  4  0  0  0  0
  4  5  2  0  0  0  0
  4  6  4  0  0  0  0
  6  7  4  0  0  0  0
  7  8  4  0  0  0  0
  8  9  4  0  0  0  0
  9 10  1  0  0  0  0
 10 11  1  0  0  0  0
 11 12  1  0  0  0  0
 12 13  1  0  0  0  0
 14 13  1  0  0  0  0
 14 15  1  6  0  0  0
 14 16  1  0  0  0  0
 10 16  1  0  0  0  0
  9 17  4  0  0  0  0
  6 17  4  0  0  0  0
 17 18  1  0  0  0  0
 18 19  1  0  0  0  0
 19 20  4  0  0  0  0
 20 21  4  0  0  0  0
 21 22  1  0  0  0  0
 21 23  4  0  0  0  0
 23 24  4  0  0  0  0
 24 25  4  0  0  0  0
 19 25  4  0  0  0  0
 25 26  1  0  0  0  0
  7 27  4  0  0  0  0
 27 28  4  0  0  0  0
 28 29  4  0  0  0  0
 29 30  4  0  0  0  0
 30 31  1  0  0  0  0
 31 32  2  0  0  0  0
 31 33  1  0  0  0  0
 30 34  4  0  0  0  0
 34 35  4  0  0  0  0
 27 35  4  0  0  0  0
  3 35  4  0  0  0  0
M  END
>  <CdId>
69

>  <Mol Weight>
520.39

>  <Formula>
C24H24Cl2FN5O3

>  <Molecule ChEMBL ID>
CHEMBL2147070

>  <Molecule Max Phase>
None

>  <Molecular Weight>
520.39

>  <#RO5 Violations>
0

>  <AlogP>
3.35

>  <Compound Key>
28

>  <Standard Type>
IC50

>  <Standard Relation>
'>'

>  <Standard Value>
50000.0

>  <Standard Units>
nM

$$$$

  Mrv2114 03112311372D          

 41 43  0  0  1  0            999 V2000
    1.5395    8.1950    0.0000 C   0  0  0  0  0  0  0  0  0  0  0  0
    1.9520    7.4805    0.0000 C   0  0  2  0  0  0  0  0  0  0  0  0
    1.5395    6.7661    0.0000 N   0  0  0  0  0  0  0  0  0  0  0  0
    0.7145    6.7661    0.0000 S   0  0  0  0  0  0  0  0  0  0  0  0
   -0.1105    6.7661    0.0000 O   0  0  0  0  0  0  0  0  0  0  0  0
    0.7145    7.5911    0.0000 O   0  0  0  0  0  0  0  0  0  0  0  0
    0.7145    5.9411    0.0000 C   0  0  0  0  0  0  0  0  0  0  0  0
    1.4289    5.5286    0.0000 C   0  0  0  0  0  0  0  0  0  0  0  0
    1.4289    4.7036    0.0000 C   0  0  0  0  0  0  0  0  0  0  0  0
    0.7145    4.2911    0.0000 C   0  0  0  0  0  0  0  0  0  0  0  0
    0.7145    3.4661    0.0000 C   0  0  0  0  0  0  0  0  0  0  0  0
    0.0470    2.9812    0.0000 S   0  0  0  0  0  0  0  0  0  0  0  0
    0.3020    2.1965    0.0000 C   0  0  0  0  0  0  0  0  0  0  0  0
   -0.1830    1.5291    0.0000 C   0  0  0  0  0  0  0  0  0  0  0  0
    0.1526    0.7754    0.0000 O   0  0  0  0  0  0  0  0  0  0  0  0
   -1.0034    1.6153    0.0000 N   0  0  0  0  0  0  0  0  0  0  0  0
   -1.4884    0.9479    0.0000 C   0  0  0  0  0  0  0  0  0  0  0  0
   -2.3088    1.0341    0.0000 C   0  0  0  0  0  0  0  0  0  0  0  0
   -3.1293    1.1204    0.0000 C   0  0  0  0  0  0  0  0  0  0  0  0
   -2.3951    0.2136    0.0000 C   0  0  0  0  0  0  0  0  0  0  0  0
   -2.2226    1.8546    0.0000 O   0  0  0  0  0  0  0  0  0  0  0  0
    1.1270    2.1965    0.0000 N   0  0  0  0  0  0  0  0  0  0  0  0
    1.3819    2.9812    0.0000 C   0  0  0  0  0  0  0  0  0  0  0  0
    2.1665    3.2361    0.0000 C   0  0  0  0  0  0  0  0  0  0  0  0
    2.3381    4.0431    0.0000 O   0  0  0  0  0  0  0  0  0  0  0  0
    2.7796    2.6841    0.0000 N   0  0  0  0  0  0  0  0  0  0  0  0
    3.5866    2.8556    0.0000 C   0  0  0  0  0  0  0  0  0  0  0  0
    3.9991    2.1411    0.0000 C   0  0  0  0  0  0  0  0  0  0  0  0
    4.6665    2.6260    0.0000 F   0  0  0  0  0  0  0  0  0  0  0  0
    4.5511    1.5280    0.0000 F   0  0  0  0  0  0  0  0  0  0  0  0
    3.4471    1.5280    0.0000 C   0  0  0  0  0  0  0  0  0  0  0  0
    2.6934    1.8636    0.0000 C   0  0  2  0  0  0  0  0  0  0  0  0
    1.9789    1.4511    0.0000 C   0  0  0  0  0  0  0  0  0  0  0  0
   -0.0000    4.7036    0.0000 C   0  0  0  0  0  0  0  0  0  0  0  0
   -0.7145    4.2911    0.0000 Cl  0  0  0  0  0  0  0  0  0  0  0  0
   -0.0000    5.5286    0.0000 C   0  0  0  0  0  0  0  0  0  0  0  0
   -0.7145    5.9411    0.0000 Cl  0  0  0  0  0  0  0  0  0  0  0  0
    2.7770    7.4805    0.0000 C   0  0  0  0  0  0  0  0  0  0  0  0
    3.6020    7.4805    0.0000 F   0  0  0  0  0  0  0  0  0  0  0  0
    2.7770    6.6555    0.0000 F   0  0  0  0  0  0  0  0  0  0  0  0
    2.7770    8.3055    0.0000 F   0  0  0  0  0  0  0  0  0  0  0  0
  2  1  1  1  0  0  0
  2  3  1  0  0  0  0
  3  4  1  0  0  0  0
  4  5  2  0  0  0  0
  4  6  2  0  0  0  0
  4  7  1  0  0  0  0
  7  8  4  0  0  0  0
  8  9  4  0  0  0  0
  9 10  4  0  0  0  0
 10 11  1  0  0  0  0
 11 12  4  0  0  0  0
 12 13  4  0  0  0  0
 13 14  1  0  0  0  0
 14 15  2  0  0  0  0
 14 16  1  0  0  0  0
 16 17  1  0  0  0  0
 17 18  1  0  0  0  0
 18 19  1  0  0  0  0
 18 20  1  0  0  0  0
 18 21  1  0  0  0  0
 13 22  4  0  0  0  0
 22 23  4  0  0  0  0
 11 23  4  0  0  0  0
 23 24  1  0  0  0  0
 24 25  2  0  0  0  0
 24 26  1  0  0  0  0
 26 27  1  0  0  0  0
 27 28  1  0  0  0  0
 28 29  1  0  0  0  0
 28 30  1  0  0  0  0
 28 31  1  0  0  0  0
 32 31  1  0  0  0  0
 32 26  1  0  0  0  0
 32 33  1  6  0  0  0
 10 34  4  0  0  0  0
 34 35  1  0  0  0  0
 34 36  4  0  0  0  0
  7 36  4  0  0  0  0
 36 37  1  0  0  0  0
  2 38  1  0  0  0  0
 38 39  1  0  0  0  0
 38 40  1  0  0  0  0
 38 41  1  0  0  0  0
M  END
>  <CdId>
70

>  <Mol Weight>
667.49

>  <Formula>
C23H25Cl2F5N4O5S2

>  <Molecule ChEMBL ID>
CHEMBL4644553

>  <Molecule Max Phase>
None

>  <Molecular Weight>
667.51

>  <#RO5 Violations>
1

>  <AlogP>
4.72

>  <Compound Key>
1u

>  <Standard Type>
IC50

>  <Standard Relation>
'>'

>  <Standard Value>
10000.0

>  <Standard Units>
nM

$$$$

  Mrv2114 03112311372D          

 19 20  0  0  0  0            999 V2000
   -1.4289   -1.6500    0.0000 C   0  0  0  0  0  0  0  0  0  0  0  0
   -0.7145   -1.2375    0.0000 B   0  0  0  0  0  0  0  0  0  0  0  0
    0.0000   -1.6500    0.0000 C   0  0  0  0  0  0  0  0  0  0  0  0
    0.7145   -1.2375    0.0000 C   0  0  0  0  0  0  0  0  0  0  0  0
    0.7145   -0.4125    0.0000 C   0  0  0  0  0  0  0  0  0  0  0  0
    0.0000    0.0000    0.0000 C   0  0  0  0  0  0  0  0  0  0  0  0
    0.0000    0.8250    0.0000 C   0  0  0  0  0  0  0  0  0  0  0  0
    0.7145    1.2375    0.0000 C   0  0  0  0  0  0  0  0  0  0  0  0
    1.4289    0.8250    0.0000 C   0  0  0  0  0  0  0  0  0  0  0  0
    1.4289    0.0000    0.0000 C   0  0  0  0  0  0  0  0  0  0  0  0
    2.1434   -0.4125    0.0000 O   0  0  0  0  0  0  0  0  0  0  0  0
    2.8579    0.0000    0.0000 C   0  0  0  0  0  0  0  0  0  0  0  0
    3.5724   -0.4125    0.0000 C   0  0  0  0  0  0  0  0  0  0  0  0
    3.5724   -1.2375    0.0000 O   0  0  0  0  0  0  0  0  0  0  0  0
    4.2868    0.0000    0.0000 C   0  0  0  0  0  0  0  0  0  0  0  0
    5.0013   -0.4125    0.0000 N   0  0  0  0  0  0  0  0  0  0  0  0
    5.7158    0.0000    0.0000 C   0  0  0  0  0  0  0  0  0  0  0  0
    5.0013   -1.2375    0.0000 C   0  0  0  0  0  0  0  0  0  0  0  0
   -0.7145   -0.4125    0.0000 N   0  0  0  0  0  0  0  0  0  0  0  0
  1  2  1  0  0  0  0
  2  3  1  0  0  0  0
  3  4  2  0  0  0  0
  4  5  1  0  0  0  0
  5  6  4  0  0  0  0
  6  7  4  0  0  0  0
  7  8  4  0  0  0  0
  8  9  4  0  0  0  0
  9 10  4  0  0  0  0
  5 10  4  0  0  0  0
 10 11  1  0  0  0  0
 11 12  1  0  0  0  0
 12 13  1  0  0  0  0
 13 14  1  0  0  0  0
 13 15  1  0  0  0  0
 15 16  1  0  0  0  0
 16 17  1  0  0  0  0
 16 18  1  0  0  0  0
  6 19  1  0  0  0  0
  2 19  1  0  0  0  0
M  END
>  <CdId>
71

>  <Mol Weight>
260.14

>  <Formula>
C14H21BN2O2

>  <Molecule ChEMBL ID>
CHEMBL3736156

>  <Molecule Max Phase>
None

>  <Molecular Weight>
260.15

>  <#RO5 Violations>
None

>  <AlogP>
None

>  <Compound Key>
3

>  <Standard Type>
IC50

>  <Standard Relation>
'>'

>  <Standard Value>
10000.0

>  <Standard Units>
nM

$$$$

  Mrv2114 03112311372D          

 36 39  0  0  1  0            999 V2000
   -5.0013    8.4161    0.0000 C   0  0  0  0  0  0  0  0  0  0  0  0
   -4.2868    8.0036    0.0000 O   0  0  0  0  0  0  0  0  0  0  0  0
   -3.5724    8.4161    0.0000 C   0  0  0  0  0  0  0  0  0  0  0  0
   -3.5724    9.2411    0.0000 C   0  0  0  0  0  0  0  0  0  0  0  0
   -2.8579    9.6536    0.0000 C   0  0  0  0  0  0  0  0  0  0  0  0
   -2.1434    9.2411    0.0000 C   0  0  0  0  0  0  0  0  0  0  0  0
   -1.4289    9.6536    0.0000 F   0  0  0  0  0  0  0  0  0  0  0  0
   -2.1434    8.4161    0.0000 C   0  0  0  0  0  0  0  0  0  0  0  0
   -1.4289    8.0036    0.0000 C   0  0  0  0  0  0  0  0  0  0  0  0
   -0.7145    8.4161    0.0000 C   0  0  0  0  0  0  0  0  0  0  0  0
   -0.0000    8.0036    0.0000 C   0  0  0  0  0  0  0  0  0  0  0  0
   -0.0000    7.1786    0.0000 C   0  0  0  0  0  0  0  0  0  0  0  0
    0.7145    6.7661    0.0000 C   0  0  0  0  0  0  0  0  0  0  0  0
    0.7145    5.9411    0.0000 C   0  0  0  0  0  0  0  0  0  0  0  0
    1.4289    5.5286    0.0000 C   0  0  0  0  0  0  0  0  0  0  0  0
    1.4289    4.7036    0.0000 C   0  0  0  0  0  0  0  0  0  0  0  0
    0.7145    4.2911    0.0000 C   0  0  0  0  0  0  0  0  0  0  0  0
    0.7145    3.4661    0.0000 N   0  0  0  0  0  0  0  0  0  0  0  0
    1.3819    2.9812    0.0000 C   0  0  0  0  0  0  0  0  0  0  0  0
    1.1270    2.1965    0.0000 C   0  0  2  0  0  0  0  0  0  0  0  0
    1.6119    1.5291    0.0000 C   0  0  0  0  0  0  0  0  0  0  0  0
    2.0968    0.8617    0.0000 F   0  0  0  0  0  0  0  0  0  0  0  0
    0.9445    1.0442    0.0000 F   0  0  0  0  0  0  0  0  0  0  0  0
    2.2793    2.0140    0.0000 F   0  0  0  0  0  0  0  0  0  0  0  0
    0.3020    2.1965    0.0000 C   0  0  0  0  0  0  0  0  0  0  0  0
    0.0470    2.9812    0.0000 C   0  0  2  0  0  0  0  0  0  0  0  0
   -0.7376    3.2361    0.0000 C   0  0  0  0  0  0  0  0  0  0  0  0
   -1.3507    2.6841    0.0000 C   0  0  0  0  0  0  0  0  0  0  0  0
   -1.1792    1.8771    0.0000 O   0  0  0  0  0  0  0  0  0  0  0  0
   -2.1353    2.9390    0.0000 O   0  0  0  0  0  0  0  0  0  0  0  0
    0.0000    4.7036    0.0000 C   0  0  0  0  0  0  0  0  0  0  0  0
   -0.0000    5.5286    0.0000 C   0  0  0  0  0  0  0  0  0  0  0  0
   -0.7145    6.7661    0.0000 C   0  0  0  0  0  0  0  0  0  0  0  0
   -0.7145    5.9411    0.0000 C   0  0  0  0  0  0  0  0  0  0  0  0
   -1.4289    7.1786    0.0000 C   0  0  0  0  0  0  0  0  0  0  0  0
   -2.8579    8.0036    0.0000 C   0  0  0  0  0  0  0  0  0  0  0  0
  1  2  1  0  0  0  0
  2  3  1  0  0  0  0
  3  4  4  0  0  0  0
  4  5  4  0  0  0  0
  5  6  4  0  0  0  0
  6  7  1  0  0  0  0
  6  8  4  0  0  0  0
  8  9  1  0  0  0  0
  9 10  4  0  0  0  0
 10 11  4  0  0  0  0
 11 12  4  0  0  0  0
 12 13  1  0  0  0  0
 13 14  1  0  0  0  0
 14 15  4  0  0  0  0
 15 16  4  0  0  0  0
 16 17  4  0  0  0  0
 17 18  1  0  0  0  0
 18 19  1  0  0  0  0
 20 19  1  0  0  0  0
 20 21  1  6  0  0  0
 21 22  1  0  0  0  0
 21 23  1  0  0  0  0
 21 24  1  0  0  0  0
 20 25  1  0  0  0  0
 26 25  1  0  0  0  0
 26 18  1  0  0  0  0
 26 27  1  6  0  0  0
 27 28  1  0  0  0  0
 28 29  2  0  0  0  0
 28 30  1  0  0  0  0
 17 31  4  0  0  0  0
 31 32  4  0  0  0  0
 14 32  4  0  0  0  0
 12 33  4  0  0  0  0
 33 34  1  0  0  0  0
 33 35  4  0  0  0  0
  9 35  4  0  0  0  0
  8 36  4  0  0  0  0
  3 36  4  0  0  0  0
M  END
>  <CdId>
72

>  <Mol Weight>
501.522

>  <Formula>
C28H27F4NO3

>  <Molecule ChEMBL ID>
CHEMBL4083365

>  <Molecule Max Phase>
None

>  <Molecular Weight>
501.52

>  <#RO5 Violations>
2

>  <AlogP>
6.63

>  <Compound Key>
(R,R)-68

>  <Standard Type>
IC50

>  <Standard Relation>
'='

>  <Standard Value>
3800.0

>  <Standard Units>
nM

$$$$

  Mrv2114 03112311372D          

 27 30  0  0  0  0            999 V2000
    4.9319   -2.1203    0.0000 O   0  0  0  0  0  0  0  0  0  0  0  0
    5.2525   -1.3601    0.0000 C   0  0  0  0  0  0  0  0  0  0  0  0
    4.7545   -0.7024    0.0000 C   0  0  0  0  0  0  0  0  0  0  0  0
    3.9359   -0.8048    0.0000 C   0  0  0  0  0  0  0  0  0  0  0  0
    3.4379   -0.1470    0.0000 C   0  0  0  0  0  0  0  0  0  0  0  0
    3.6774    0.6425    0.0000 N   0  0  0  0  0  0  0  0  0  0  0  0
    3.0005    1.1142    0.0000 O   0  0  0  0  0  0  0  0  0  0  0  0
    2.3427    0.6162    0.0000 C   0  0  0  0  0  0  0  0  0  0  0  0
    2.6131   -0.1633    0.0000 C   0  0  0  0  0  0  0  0  0  0  0  0
    1.9554   -0.6613    0.0000 C   0  0  0  0  0  0  0  0  0  0  0  0
    1.2785   -0.1896    0.0000 C   0  0  0  0  0  0  0  0  0  0  0  0
    0.4750   -0.3770    0.0000 C   0  0  0  0  0  0  0  0  0  0  0  0
   -0.0890    0.2251    0.0000 C   0  0  0  0  0  0  0  0  0  0  0  0
   -0.8924    0.0377    0.0000 O   0  0  0  0  0  0  0  0  0  0  0  0
    0.1505    1.0146    0.0000 C   0  0  0  0  0  0  0  0  0  0  0  0
    0.9539    1.2020    0.0000 C   0  0  0  0  0  0  0  0  0  0  0  0
    1.5179    0.5999    0.0000 C   0  0  0  0  0  0  0  0  0  0  0  0
    6.0712   -1.2577    0.0000 N   0  0  0  0  0  0  0  0  0  0  0  0
    6.5691   -1.9155    0.0000 C   0  0  0  0  0  0  0  0  0  0  0  0
    6.2485   -2.6756    0.0000 C   0  0  0  0  0  0  0  0  0  0  0  0
    6.7465   -3.3334    0.0000 C   0  0  0  0  0  0  0  0  0  0  0  0
    7.5651   -3.2310    0.0000 C   0  0  0  0  0  0  0  0  0  0  0  0
    7.8857   -2.4708    0.0000 C   0  0  0  0  0  0  0  0  0  0  0  0
    7.3878   -1.8131    0.0000 C   0  0  0  0  0  0  0  0  0  0  0  0
    7.7084   -1.0529    0.0000 C   0  0  0  0  0  0  0  0  0  0  0  0
    7.2104   -0.3952    0.0000 O   0  0  0  0  0  0  0  0  0  0  0  0
    8.5270   -0.9505    0.0000 O   0  0  0  0  0  0  0  0  0  0  0  0
  1  2  2  0  0  0  0
  2  3  1  0  0  0  0
  3  4  1  0  0  0  0
  4  5  1  0  0  0  0
  5  6  4  0  0  0  0
  6  7  4  0  0  0  0
  7  8  4  0  0  0  0
  8  9  4  0  0  0  0
  5  9  4  0  0  0  0
  9 10  1  0  0  0  0
 10 11  1  0  0  0  0
 11 12  4  0  0  0  0
 12 13  4  0  0  0  0
 13 14  1  0  0  0  0
 13 15  4  0  0  0  0
 15 16  4  0  0  0  0
 16 17  4  0  0  0  0
 11 17  4  0  0  0  0
  8 17  1  0  0  0  0
  2 18  1  0  0  0  0
 18 19  1  0  0  0  0
 19 20  4  0  0  0  0
 20 21  4  0  0  0  0
 21 22  4  0  0  0  0
 22 23  4  0  0  0  0
 23 24  4  0  0  0  0
 19 24  4  0  0  0  0
 24 25  1  0  0  0  0
 25 26  2  0  0  0  0
 25 27  1  0  0  0  0
M  END
>  <CdId>
73

>  <Mol Weight>
364.357

>  <Formula>
C20H16N2O5

>  <Molecule ChEMBL ID>
CHEMBL482980

>  <Molecule Max Phase>
None

>  <Molecular Weight>
364.36

>  <#RO5 Violations>
0

>  <AlogP>
3.22

>  <Compound Key>
2m

>  <Standard Type>
IC50

>  <Standard Relation>
'='

>  <Standard Value>
20000.0

>  <Standard Units>
nM

$$$$

  Mrv2114 03112311372D          

 37 40  0  0  0  0            999 V2000
    0.6078   -2.9491    0.0000 O   0  0  0  0  0  0  0  0  0  0  0  0
   -0.1067   -3.3616    0.0000 C   0  0  0  0  0  0  0  0  0  0  0  0
   -0.8212   -2.9491    0.0000 O   0  0  0  0  0  0  0  0  0  0  0  0
   -0.1067   -4.1866    0.0000 C   0  0  0  0  0  0  0  0  0  0  0  0
   -0.8212   -4.5991    0.0000 O   0  0  0  0  0  0  0  0  0  0  0  0
   -0.8212   -5.4241    0.0000 C   0  0  0  0  0  0  0  0  0  0  0  0
   -0.1537   -5.9090    0.0000 C   0  0  0  0  0  0  0  0  0  0  0  0
    0.6309   -5.6541    0.0000 C   0  0  0  0  0  0  0  0  0  0  0  0
    1.2440   -6.2061    0.0000 O   0  0  0  0  0  0  0  0  0  0  0  0
    0.8024   -4.8471    0.0000 O   0  0  0  0  0  0  0  0  0  0  0  0
   -0.4087   -6.6937    0.0000 S   0  0  0  0  0  0  0  0  0  0  0  0
   -1.2337   -6.6937    0.0000 C   0  0  0  0  0  0  0  0  0  0  0  0
   -1.7186   -7.3611    0.0000 C   0  0  0  0  0  0  0  0  0  0  0  0
   -1.3830   -8.1148    0.0000 C   0  0  0  0  0  0  0  0  0  0  0  0
   -1.8680   -8.7822    0.0000 C   0  0  0  0  0  0  0  0  0  0  0  0
   -2.6884   -8.6960    0.0000 C   0  0  0  0  0  0  0  0  0  0  0  0
   -3.0240   -7.9423    0.0000 C   0  0  0  0  0  0  0  0  0  0  0  0
   -3.8445   -7.8561    0.0000 N   0  0  0  0  0  0  0  0  0  0  0  0
   -4.1800   -7.1024    0.0000 C   0  0  0  0  0  0  0  0  0  0  0  0
   -5.0005   -7.0161    0.0000 C   0  0  0  0  0  0  0  0  0  0  0  0
   -5.3361   -6.2625    0.0000 C   0  0  0  0  0  0  0  0  0  0  0  0
   -4.8512   -5.5950    0.0000 N   0  0  0  0  0  0  0  0  0  0  0  0
   -5.1867   -4.8414    0.0000 S   0  0  0  0  0  0  0  0  0  0  0  0
   -4.4330   -4.5058    0.0000 O   0  0  0  0  0  0  0  0  0  0  0  0
   -5.9404   -5.1769    0.0000 O   0  0  0  0  0  0  0  0  0  0  0  0
   -5.5223   -4.0877    0.0000 C   0  0  0  0  0  0  0  0  0  0  0  0
   -6.3428   -4.0014    0.0000 C   0  0  0  0  0  0  0  0  0  0  0  0
   -6.8277   -4.6689    0.0000 C   0  0  0  0  0  0  0  0  0  0  0  0
   -7.6482   -4.5826    0.0000 C   0  0  0  0  0  0  0  0  0  0  0  0
   -7.9837   -3.8290    0.0000 C   0  0  0  0  0  0  0  0  0  0  0  0
   -7.4988   -3.1615    0.0000 C   0  0  0  0  0  0  0  0  0  0  0  0
   -6.6783   -3.2478    0.0000 C   0  0  0  0  0  0  0  0  0  0  0  0
   -4.0307   -5.6813    0.0000 C   0  0  0  0  0  0  0  0  0  0  0  0
   -3.6951   -6.4349    0.0000 C   0  0  0  0  0  0  0  0  0  0  0  0
   -2.5391   -7.2749    0.0000 C   0  0  0  0  0  0  0  0  0  0  0  0
   -1.4886   -5.9090    0.0000 C   0  0  0  0  0  0  0  0  0  0  0  0
   -2.2732   -5.6541    0.0000 Br  0  0  0  0  0  0  0  0  0  0  0  0
  1  2  2  0  0  0  0
  2  3  1  0  0  0  0
  2  4  1  0  0  0  0
  4  5  1  0  0  0  0
  5  6  1  0  0  0  0
  6  7  4  0  0  0  0
  7  8  1  0  0  0  0
  8  9  2  0  0  0  0
  8 10  1  0  0  0  0
  7 11  4  0  0  0  0
 11 12  4  0  0  0  0
 12 13  1  0  0  0  0
 13 14  4  0  0  0  0
 14 15  4  0  0  0  0
 15 16  4  0  0  0  0
 16 17  4  0  0  0  0
 17 18  1  0  0  0  0
 18 19  1  0  0  0  0
 19 20  1  0  0  0  0
 20 21  1  0  0  0  0
 21 22  1  0  0  0  0
 22 23  1  0  0  0  0
 23 24  2  0  0  0  0
 23 25  2  0  0  0  0
 23 26  1  0  0  0  0
 26 27  1  0  0  0  0
 27 28  4  0  0  0  0
 28 29  4  0  0  0  0
 29 30  4  0  0  0  0
 30 31  4  0  0  0  0
 31 32  4  0  0  0  0
 27 32  4  0  0  0  0
 22 33  1  0  0  0  0
 33 34  1  0  0  0  0
 19 34  1  0  0  0  0
 17 35  4  0  0  0  0
 13 35  4  0  0  0  0
 12 36  4  0  0  0  0
  6 36  4  0  0  0  0
 36 37  1  0  0  0  0
M  END
>  <CdId>
74

>  <Mol Weight>
609.51

>  <Formula>
C25H25BrN2O7S2

>  <Molecule ChEMBL ID>
CHEMBL541214

>  <Molecule Max Phase>
None

>  <Molecular Weight>
609.52

>  <#RO5 Violations>
1

>  <AlogP>
4.75

>  <Compound Key>
32

>  <Standard Type>
IC50

>  <Standard Relation>
'>'

>  <Standard Value>
500000.0

>  <Standard Units>
nM

$$$$

  Mrv2114 03112311372D          

 28 31  0  0  0  0            999 V2000
    7.8592   -2.0625    0.0000 C   0  0  0  0  0  0  0  0  0  0  0  0
    8.5737   -1.6500    0.0000 C   0  0  0  0  0  0  0  0  0  0  0  0
    9.2881   -2.0625    0.0000 C   0  0  0  0  0  0  0  0  0  0  0  0
   10.0026   -1.6500    0.0000 C   0  0  0  0  0  0  0  0  0  0  0  0
   10.7171   -2.0625    0.0000 C   0  0  0  0  0  0  0  0  0  0  0  0
   11.4315   -1.6500    0.0000 O   0  0  0  0  0  0  0  0  0  0  0  0
   12.1460   -2.0625    0.0000 C   0  0  0  0  0  0  0  0  0  0  0  0
   12.8605   -1.6500    0.0000 C   0  0  0  0  0  0  0  0  0  0  0  0
   13.5749   -2.0625    0.0000 C   0  0  0  0  0  0  0  0  0  0  0  0
   13.5749   -2.8875    0.0000 C   0  0  0  0  0  0  0  0  0  0  0  0
   14.2894   -3.3000    0.0000 C   0  0  0  0  0  0  0  0  0  0  0  0
   14.2894   -4.1250    0.0000 O   0  0  0  0  0  0  0  0  0  0  0  0
   15.0039   -2.8875    0.0000 C   0  0  0  0  0  0  0  0  0  0  0  0
   15.0039   -2.0625    0.0000 C   0  0  0  0  0  0  0  0  0  0  0  0
   15.7184   -1.6500    0.0000 C   0  0  0  0  0  0  0  0  0  0  0  0
   16.4328   -2.0625    0.0000 C   0  0  0  0  0  0  0  0  0  0  0  0
   16.4328   -2.8875    0.0000 C   0  0  0  0  0  0  0  0  0  0  0  0
   17.1473   -3.3000    0.0000 C   0  0  0  0  0  0  0  0  0  0  0  0
   17.1473   -4.1250    0.0000 C   0  0  0  0  0  0  0  0  0  0  0  0
   16.4328   -4.5375    0.0000 C   0  0  0  0  0  0  0  0  0  0  0  0
   15.7184   -4.1250    0.0000 C   0  0  0  0  0  0  0  0  0  0  0  0
   15.7184   -3.3000    0.0000 C   0  0  0  0  0  0  0  0  0  0  0  0
   12.8605   -3.3000    0.0000 C   0  0  0  0  0  0  0  0  0  0  0  0
   12.8605   -4.1250    0.0000 C   0  0  0  0  0  0  0  0  0  0  0  0
   12.1460   -4.5375    0.0000 C   0  0  0  0  0  0  0  0  0  0  0  0
   11.4315   -4.1250    0.0000 C   0  0  0  0  0  0  0  0  0  0  0  0
   11.4315   -3.3000    0.0000 C   0  0  0  0  0  0  0  0  0  0  0  0
   12.1460   -2.8875    0.0000 C   0  0  0  0  0  0  0  0  0  0  0  0
  1  2  1  0  0  0  0
  2  3  1  0  0  0  0
  3  4  1  0  0  0  0
  4  5  1  0  0  0  0
  5  6  1  0  0  0  0
  6  7  1  0  0  0  0
  7  8  4  0  0  0  0
  8  9  4  0  0  0  0
  9 10  4  0  0  0  0
 10 11  1  0  0  0  0
 11 12  2  0  0  0  0
 11 13  1  0  0  0  0
 13 14  4  0  0  0  0
 14 15  4  0  0  0  0
 15 16  4  0  0  0  0
 16 17  4  0  0  0  0
 17 18  4  0  0  0  0
 18 19  4  0  0  0  0
 19 20  4  0  0  0  0
 20 21  4  0  0  0  0
 21 22  4  0  0  0  0
 13 22  4  0  0  0  0
 17 22  4  0  0  0  0
 10 23  4  0  0  0  0
 23 24  4  0  0  0  0
 24 25  4  0  0  0  0
 25 26  4  0  0  0  0
 26 27  4  0  0  0  0
 27 28  4  0  0  0  0
  7 28  4  0  0  0  0
 23 28  4  0  0  0  0
M  END
>  <CdId>
75

>  <Mol Weight>
368.476

>  <Formula>
C26H24O2

>  <Molecule ChEMBL ID>
CHEMBL244403

>  <Molecule Max Phase>
None

>  <Molecular Weight>
368.48

>  <#RO5 Violations>
1

>  <AlogP>
6.79

>  <Compound Key>
13

>  <Standard Type>
IC50

>  <Standard Relation>
'>'

>  <Standard Value>
200000.0

>  <Standard Units>
nM

$$$$

  Mrv2114 03112311372D          

 26 28  0  0  0  0            999 V2000
   -0.7145   -3.7125    0.0000 C   0  0  0  0  0  0  0  0  0  0  0  0
    0.0000   -4.1250    0.0000 O   0  0  0  0  0  0  0  0  0  0  0  0
    0.7145   -3.7125    0.0000 C   0  0  0  0  0  0  0  0  0  0  0  0
    0.7145   -2.8875    0.0000 C   0  0  0  0  0  0  0  0  0  0  0  0
    1.4289   -2.4750    0.0000 C   0  0  0  0  0  0  0  0  0  0  0  0
    1.4289   -1.6500    0.0000 C   0  0  0  0  0  0  0  0  0  0  0  0
    0.7145   -1.2375    0.0000 C   0  0  0  0  0  0  0  0  0  0  0  0
    0.7145   -0.4125    0.0000 N   0  0  0  0  0  0  0  0  0  0  0  0
    0.0000    0.0000    0.0000 C   0  0  0  0  0  0  0  0  0  0  0  0
    1.4289    0.0000    0.0000 C   0  0  0  0  0  0  0  0  0  0  0  0
    1.4289    0.8250    0.0000 O   0  0  0  0  0  0  0  0  0  0  0  0
    2.1434   -0.4125    0.0000 C   0  0  0  0  0  0  0  0  0  0  0  0
    2.8579    0.0000    0.0000 C   0  0  0  0  0  0  0  0  0  0  0  0
    3.5724   -0.4125    0.0000 N   0  0  0  0  0  0  0  0  0  0  0  0
    3.5724   -1.2375    0.0000 C   0  0  0  0  0  0  0  0  0  0  0  0
    2.8579   -1.6500    0.0000 C   0  0  0  0  0  0  0  0  0  0  0  0
    2.1434   -1.2375    0.0000 C   0  0  0  0  0  0  0  0  0  0  0  0
    2.1434   -2.8875    0.0000 C   0  0  0  0  0  0  0  0  0  0  0  0
    2.8579   -2.4750    0.0000 O   0  0  0  0  0  0  0  0  0  0  0  0
    3.5724   -2.8875    0.0000 C   0  0  0  0  0  0  0  0  0  0  0  0
    2.1434   -3.7125    0.0000 C   0  0  0  0  0  0  0  0  0  0  0  0
    1.4289   -4.1250    0.0000 C   0  0  0  0  0  0  0  0  0  0  0  0
    1.4289   -4.9500    0.0000 C   0  0  0  0  0  0  0  0  0  0  0  0
    0.7145   -5.3625    0.0000 N   0  0  0  0  0  0  0  0  0  0  0  0
    0.7145   -6.1875    0.0000 C   0  0  0  0  0  0  0  0  0  0  0  0
    0.0000   -4.9500    0.0000 C   0  0  0  0  0  0  0  0  0  0  0  0
  1  2  1  0  0  0  0
  2  3  1  0  0  0  0
  3  4  4  0  0  0  0
  4  5  4  0  0  0  0
  5  6  1  0  0  0  0
  6  7  4  0  0  0  0
  7  8  4  0  0  0  0
  8  9  1  0  0  0  0
  8 10  4  0  0  0  0
 10 11  2  0  0  0  0
 10 12  4  0  0  0  0
 12 13  4  0  0  0  0
 13 14  4  0  0  0  0
 14 15  4  0  0  0  0
 15 16  4  0  0  0  0
 16 17  4  0  0  0  0
  6 17  4  0  0  0  0
 12 17  4  0  0  0  0
  5 18  4  0  0  0  0
 18 19  1  0  0  0  0
 19 20  1  0  0  0  0
 18 21  4  0  0  0  0
 21 22  4  0  0  0  0
  3 22  4  0  0  0  0
 22 23  1  0  0  0  0
 23 24  1  0  0  0  0
 24 25  1  0  0  0  0
 24 26  1  0  0  0  0
M  END
>  <CdId>
76

>  <Mol Weight>
353.422

>  <Formula>
C20H23N3O3

>  <Molecule ChEMBL ID>
CHEMBL3823101

>  <Molecule Max Phase>
None

>  <Molecular Weight>
353.42

>  <#RO5 Violations>
0

>  <AlogP>
2.68

>  <Compound Key>
2; BI-9564

>  <Standard Type>
IC50

>  <Standard Relation>
'>'

>  <Standard Value>
50000.0

>  <Standard Units>
nM

$$$$

  Mrv2114 03112311372D          

 37 41  0  0  1  0            999 V2000
   -6.4056   -2.3791    0.0000 C   0  0  0  0  0  0  0  0  0  0  0  0
   -5.6304   -2.0970    0.0000 C   0  0  0  0  0  0  0  0  0  0  0  0
   -4.9984   -2.6273    0.0000 C   0  0  0  0  0  0  0  0  0  0  0  0
   -4.2232   -2.3451    0.0000 C   0  0  0  0  0  0  0  0  0  0  0  0
   -3.5912   -2.8754    0.0000 C   0  0  0  0  0  0  0  0  0  0  0  0
   -2.8159   -2.5932    0.0000 C   0  0  0  0  0  0  0  0  0  0  0  0
   -2.1839   -3.1235    0.0000 C   0  0  0  0  0  0  0  0  0  0  0  0
   -1.4087   -2.8414    0.0000 C   0  0  2  0  0  0  0  0  0  0  0  0
   -1.2654   -3.6538    0.0000 C   0  0  0  0  0  0  0  0  0  0  0  0
   -0.5239   -4.0155    0.0000 C   0  0  0  0  0  0  0  0  0  0  0  0
   -0.6388   -4.8324    0.0000 C   0  0  0  0  0  0  0  0  0  0  0  0
   -1.4512   -4.9757    0.0000 C   0  0  0  0  0  0  0  0  0  0  0  0
   -1.8385   -4.2473    0.0000 C   0  0  0  0  0  0  0  0  0  0  0  0
   -1.8212   -2.1269    0.0000 C   0  0  0  0  0  0  0  0  0  0  0  0
   -1.4087   -1.4124    0.0000 C   0  0  0  0  0  0  0  0  0  0  0  0
   -1.8212   -0.6979    0.0000 O   0  0  0  0  0  0  0  0  0  0  0  0
   -0.5837   -1.4124    0.0000 C   0  0  0  0  0  0  0  0  0  0  0  0
   -0.1712   -0.6979    0.0000 C   0  0  0  0  0  0  0  0  0  0  0  0
    0.6538   -0.6979    0.0000 C   0  0  0  0  0  0  0  0  0  0  0  0
    1.1387   -0.0305    0.0000 N   0  0  0  0  0  0  0  0  0  0  0  0
    1.9233   -0.2854    0.0000 C   0  0  0  0  0  0  0  0  0  0  0  0
    2.6378    0.1271    0.0000 N   0  0  0  0  0  0  0  0  0  0  0  0
    3.3523   -0.2854    0.0000 C   0  0  0  0  0  0  0  0  0  0  0  0
    4.0668    0.1271    0.0000 C   0  0  0  0  0  0  0  0  0  0  0  0
    3.3523   -1.1104    0.0000 C   0  0  0  0  0  0  0  0  0  0  0  0
    2.6378   -1.5229    0.0000 C   0  0  0  0  0  0  0  0  0  0  0  0
    2.6378   -2.3479    0.0000 C   0  0  0  0  0  0  0  0  0  0  0  0
    1.9233   -1.1104    0.0000 N   0  0  0  0  0  0  0  0  0  0  0  0
    1.1387   -1.3654    0.0000 N   0  0  0  0  0  0  0  0  0  0  0  0
   -0.1712   -2.1269    0.0000 C   0  0  0  0  0  0  0  0  0  0  0  0
    0.6538   -2.1269    0.0000 O   0  0  0  0  0  0  0  0  0  0  0  0
   -0.5837   -2.8414    0.0000 O   0  0  0  0  0  0  0  0  0  0  0  0
   -3.7344   -3.6879    0.0000 C   0  0  0  0  0  0  0  0  0  0  0  0
   -4.5097   -3.9700    0.0000 C   0  0  0  0  0  0  0  0  0  0  0  0
   -4.6529   -4.7825    0.0000 C   0  0  0  0  0  0  0  0  0  0  0  0
   -5.4282   -5.0647    0.0000 C   0  0  0  0  0  0  0  0  0  0  0  0
   -5.1417   -3.4397    0.0000 N   0  0  0  0  0  0  0  0  0  0  0  0
  1  2  1  0  0  0  0
  2  3  1  0  0  0  0
  3  4  4  0  0  0  0
  4  5  4  0  0  0  0
  5  6  1  0  0  0  0
  6  7  1  0  0  0  0
  8  7  1  6  0  0  0
  8  9  1  1  0  0  0
  9 10  1  0  0  0  0
 10 11  1  0  0  0  0
 11 12  1  0  0  0  0
 12 13  1  0  0  0  0
  9 13  1  0  0  0  0
  8 14  1  0  0  0  0
 14 15  1  0  0  0  0
 15 16  1  0  0  0  0
 15 17  2  0  0  0  0
 17 18  1  0  0  0  0
 18 19  1  0  0  0  0
 19 20  4  0  0  0  0
 20 21  4  0  0  0  0
 21 22  4  0  0  0  0
 22 23  4  0  0  0  0
 23 24  1  0  0  0  0
 23 25  4  0  0  0  0
 25 26  4  0  0  0  0
 26 27  1  0  0  0  0
 26 28  4  0  0  0  0
 21 28  4  0  0  0  0
 28 29  4  0  0  0  0
 19 29  4  0  0  0  0
 17 30  1  0  0  0  0
 30 31  2  0  0  0  0
 30 32  1  0  0  0  0
  8 32  1  0  0  0  0
  5 33  4  0  0  0  0
 33 34  4  0  0  0  0
 34 35  1  0  0  0  0
 35 36  1  0  0  0  0
 34 37  4  0  0  0  0
  3 37  4  0  0  0  0
M  END
>  <CdId>
77

>  <Mol Weight>
503.647

>  <Formula>
C29H37N5O3

>  <Molecule ChEMBL ID>
CHEMBL490672

>  <Molecule Name>
FILIBUVIR

>  <Molecule Max Phase>
3

>  <Molecular Weight>
503.65

>  <#RO5 Violations>
2

>  <AlogP>
5.12

>  <Compound Key>
24, PF-00868554

>  <Standard Type>
IC50

>  <Standard Relation>
'>'

>  <Standard Value>
30000.0

>  <Standard Units>
nM

$$$$

  Mrv2114 03112311372D          

 22 26  0  0  0  0            999 V2000
    3.7975   -3.6993    0.0000 Cl  0  0  0  0  0  0  0  0  0  0  0  0
    3.0691   -3.3119    0.0000 C   0  0  0  0  0  0  0  0  0  0  0  0
    2.3694   -3.7491    0.0000 C   0  0  0  0  0  0  0  0  0  0  0  0
    1.6410   -3.3618    0.0000 C   0  0  0  0  0  0  0  0  0  0  0  0
    1.6122   -2.5373    0.0000 C   0  0  0  0  0  0  0  0  0  0  0  0
    0.8838   -2.1500    0.0000 C   0  0  0  0  0  0  0  0  0  0  0  0
    1.1387   -1.3654    0.0000 C   0  0  0  0  0  0  0  0  0  0  0  0
    0.6538   -0.6979    0.0000 N   0  0  0  0  0  0  0  0  0  0  0  0
    1.1387   -0.0305    0.0000 N   0  0  0  0  0  0  0  0  0  0  0  0
    1.9233   -0.2854    0.0000 C   0  0  0  0  0  0  0  0  0  0  0  0
    2.6378    0.1271    0.0000 C   0  0  0  0  0  0  0  0  0  0  0  0
    2.6378    0.9521    0.0000 C   0  0  0  0  0  0  0  0  0  0  0  0
    2.2253    1.6665    0.0000 C   0  0  0  0  0  0  0  0  0  0  0  0
    3.0503    1.6665    0.0000 C   0  0  0  0  0  0  0  0  0  0  0  0
    3.3523   -0.2854    0.0000 C   0  0  0  0  0  0  0  0  0  0  0  0
    3.3523   -1.1104    0.0000 C   0  0  0  0  0  0  0  0  0  0  0  0
    2.6378   -1.5229    0.0000 C   0  0  0  0  0  0  0  0  0  0  0  0
    1.9233   -1.1104    0.0000 N   0  0  0  0  0  0  0  0  0  0  0  0
    0.3759   -2.8001    0.0000 C   0  0  0  0  0  0  0  0  0  0  0  0
    0.0668   -2.0352    0.0000 C   0  0  0  0  0  0  0  0  0  0  0  0
    2.3119   -2.1001    0.0000 C   0  0  0  0  0  0  0  0  0  0  0  0
    3.0403   -2.4874    0.0000 C   0  0  0  0  0  0  0  0  0  0  0  0
  1  2  1  0  0  0  0
  2  3  4  0  0  0  0
  3  4  4  0  0  0  0
  4  5  4  0  0  0  0
  5  6  1  0  0  0  0
  6  7  1  0  0  0  0
  7  8  4  0  0  0  0
  8  9  4  0  0  0  0
  9 10  4  0  0  0  0
 10 11  4  0  0  0  0
 11 12  1  0  0  0  0
 12 13  1  0  0  0  0
 13 14  1  0  0  0  0
 12 14  1  0  0  0  0
 11 15  4  0  0  0  0
 15 16  4  0  0  0  0
 16 17  4  0  0  0  0
 17 18  4  0  0  0  0
  7 18  4  0  0  0  0
 10 18  4  0  0  0  0
  6 19  1  0  0  0  0
 19 20  1  0  0  0  0
  6 20  1  0  0  0  0
  5 21  4  0  0  0  0
 21 22  4  0  0  0  0
  2 22  4  0  0  0  0
M  END
>  <CdId>
78

>  <Mol Weight>
309.8

>  <Formula>
C18H16ClN3

>  <Molecule ChEMBL ID>
CHEMBL3318978

>  <Molecule Max Phase>
None

>  <Molecular Weight>
309.8

>  <#RO5 Violations>
0

>  <AlogP>
4.34

>  <Compound Key>
9f

>  <Standard Type>
IC50

>  <Standard Relation>
'>'

>  <Standard Value>
20000.0

>  <Standard Units>
nM

$$$$

  Mrv2114 03112311372D          

 26 28  0  0  0  0            999 V2000
    0.0000   -2.4750    0.0000 O   0  0  0  0  0  0  0  0  0  0  0  0
    0.0000   -1.6500    0.0000 C   0  0  0  0  0  0  0  0  0  0  0  0
   -0.7145   -1.2375    0.0000 C   0  0  0  0  0  0  0  0  0  0  0  0
   -1.4289   -1.6500    0.0000 C   0  0  0  0  0  0  0  0  0  0  0  0
   -1.4289   -2.4750    0.0000 C   0  0  0  0  0  0  0  0  0  0  0  0
   -0.7615   -2.9599    0.0000 C   0  0  0  0  0  0  0  0  0  0  0  0
   -1.0164   -3.7445    0.0000 N   0  0  0  0  0  0  0  0  0  0  0  0
   -1.8414   -3.7445    0.0000 C   0  0  0  0  0  0  0  0  0  0  0  0
   -2.3264   -4.4120    0.0000 C   0  0  0  0  0  0  0  0  0  0  0  0
   -1.9908   -5.1657    0.0000 C   0  0  0  0  0  0  0  0  0  0  0  0
   -2.4757   -5.8331    0.0000 C   0  0  0  0  0  0  0  0  0  0  0  0
   -3.2962   -5.7469    0.0000 C   0  0  0  0  0  0  0  0  0  0  0  0
   -3.7811   -6.4143    0.0000 O   0  0  0  0  0  0  0  0  0  0  0  0
   -3.6318   -4.9932    0.0000 C   0  0  0  0  0  0  0  0  0  0  0  0
   -3.1468   -4.3257    0.0000 N   0  0  0  0  0  0  0  0  0  0  0  0
   -2.0964   -2.9599    0.0000 S   0  0  0  0  0  0  0  0  0  0  0  0
    0.7145   -1.2375    0.0000 N   0  0  0  0  0  0  0  0  0  0  0  0
    0.7145   -0.4125    0.0000 C   0  0  0  0  0  0  0  0  0  0  0  0
    0.0000    0.0000    0.0000 C   0  0  0  0  0  0  0  0  0  0  0  0
    0.0000    0.8250    0.0000 C   0  0  0  0  0  0  0  0  0  0  0  0
    0.7145    1.2375    0.0000 C   0  0  0  0  0  0  0  0  0  0  0  0
    1.4289    0.8250    0.0000 C   0  0  0  0  0  0  0  0  0  0  0  0
    1.4289    0.0000    0.0000 C   0  0  0  0  0  0  0  0  0  0  0  0
    2.1434   -0.4125    0.0000 C   0  0  0  0  0  0  0  0  0  0  0  0
    2.1434   -1.2375    0.0000 O   0  0  0  0  0  0  0  0  0  0  0  0
    2.8579    0.0000    0.0000 O   0  0  0  0  0  0  0  0  0  0  0  0
  1  2  2  0  0  0  0
  2  3  1  0  0  0  0
  3  4  1  0  0  0  0
  4  5  1  0  0  0  0
  5  6  4  0  0  0  0
  6  7  4  0  0  0  0
  7  8  4  0  0  0  0
  8  9  1  0  0  0  0
  9 10  4  0  0  0  0
 10 11  4  0  0  0  0
 11 12  4  0  0  0  0
 12 13  1  0  0  0  0
 12 14  4  0  0  0  0
 14 15  4  0  0  0  0
  9 15  4  0  0  0  0
  8 16  4  0  0  0  0
  5 16  4  0  0  0  0
  2 17  1  0  0  0  0
 17 18  1  0  0  0  0
 18 19  4  0  0  0  0
 19 20  4  0  0  0  0
 20 21  4  0  0  0  0
 21 22  4  0  0  0  0
 22 23  4  0  0  0  0
 18 23  4  0  0  0  0
 23 24  1  0  0  0  0
 24 25  2  0  0  0  0
 24 26  1  0  0  0  0
M  END
>  <CdId>
79

>  <Mol Weight>
369.4

>  <Formula>
C18H15N3O4S

>  <Molecule ChEMBL ID>
CHEMBL237037

>  <Molecule Max Phase>
None

>  <Molecular Weight>
369.4

>  <#RO5 Violations>
0

>  <AlogP>
3.18

>  <Compound Key>
2l

>  <Standard Type>
IC50

>  <Standard Relation>
'='

>  <Standard Value>
20300.0

>  <Standard Units>
nM

$$$$

  Mrv2114 03112311372D          

 27 30  0  0  0  0            999 V2000
    6.0157    1.4535    0.0000 O   0  0  0  0  0  0  0  0  0  0  0  0
    5.3918    1.9934    0.0000 C   0  0  0  0  0  0  0  0  0  0  0  0
    4.6124    1.7230    0.0000 C   0  0  0  0  0  0  0  0  0  0  0  0
    4.4568    0.9128    0.0000 C   0  0  0  0  0  0  0  0  0  0  0  0
    3.6774    0.6425    0.0000 C   0  0  0  0  0  0  0  0  0  0  0  0
    3.0005    1.1142    0.0000 C   0  0  0  0  0  0  0  0  0  0  0  0
    2.3427    0.6162    0.0000 N   0  0  0  0  0  0  0  0  0  0  0  0
    2.6131   -0.1633    0.0000 C   0  0  0  0  0  0  0  0  0  0  0  0
    3.4379   -0.1470    0.0000 N   0  0  0  0  0  0  0  0  0  0  0  0
    1.9554   -0.6613    0.0000 S   0  0  0  0  0  0  0  0  0  0  0  0
    1.2785   -0.1896    0.0000 C   0  0  0  0  0  0  0  0  0  0  0  0
    0.4750   -0.3770    0.0000 C   0  0  0  0  0  0  0  0  0  0  0  0
   -0.0890    0.2251    0.0000 C   0  0  0  0  0  0  0  0  0  0  0  0
   -0.8924    0.0377    0.0000 O   0  0  0  0  0  0  0  0  0  0  0  0
    0.1505    1.0146    0.0000 C   0  0  0  0  0  0  0  0  0  0  0  0
    0.9539    1.2020    0.0000 C   0  0  0  0  0  0  0  0  0  0  0  0
    1.5179    0.5999    0.0000 C   0  0  0  0  0  0  0  0  0  0  0  0
    5.5474    2.8036    0.0000 N   0  0  0  0  0  0  0  0  0  0  0  0
    6.3269    3.0739    0.0000 C   0  0  0  0  0  0  0  0  0  0  0  0
    6.4825    3.8841    0.0000 C   0  0  0  0  0  0  0  0  0  0  0  0
    5.8586    4.4240    0.0000 C   0  0  0  0  0  0  0  0  0  0  0  0
    6.0142    5.2342    0.0000 O   0  0  0  0  0  0  0  0  0  0  0  0
    5.0792    4.1536    0.0000 O   0  0  0  0  0  0  0  0  0  0  0  0
    7.2619    4.1545    0.0000 C   0  0  0  0  0  0  0  0  0  0  0  0
    7.8858    3.6147    0.0000 C   0  0  0  0  0  0  0  0  0  0  0  0
    7.7302    2.8045    0.0000 C   0  0  0  0  0  0  0  0  0  0  0  0
    6.9507    2.5341    0.0000 C   0  0  0  0  0  0  0  0  0  0  0  0
  1  2  2  0  0  0  0
  2  3  1  0  0  0  0
  3  4  1  0  0  0  0
  4  5  1  0  0  0  0
  5  6  4  0  0  0  0
  6  7  4  0  0  0  0
  7  8  4  0  0  0  0
  8  9  4  0  0  0  0
  5  9  4  0  0  0  0
  8 10  4  0  0  0  0
 10 11  4  0  0  0  0
 11 12  4  0  0  0  0
 12 13  4  0  0  0  0
 13 14  1  0  0  0  0
 13 15  4  0  0  0  0
 15 16  4  0  0  0  0
 16 17  4  0  0  0  0
 11 17  4  0  0  0  0
  7 17  4  0  0  0  0
  2 18  1  0  0  0  0
 18 19  1  0  0  0  0
 19 20  2  0  0  0  0
 20 21  1  0  0  0  0
 21 22  2  0  0  0  0
 21 23  1  0  0  0  0
 20 24  1  0  0  0  0
 24 25  1  0  0  0  0
 25 26  1  0  0  0  0
 26 27  1  0  0  0  0
 19 27  1  0  0  0  0
M  END
>  <CdId>
80

>  <Mol Weight>
385.44

>  <Formula>
C19H19N3O4S

>  <Molecule ChEMBL ID>
CHEMBL520513

>  <Molecule Max Phase>
None

>  <Molecular Weight>
385.45

>  <#RO5 Violations>
0

>  <AlogP>
3.22

>  <Compound Key>
3f

>  <Standard Type>
IC50

$$$$

  Mrv2114 03112311372D          

 30 31  0  0  1  0            999 V2000
    2.8579   -4.9500    0.0000 C   0  0  0  0  0  0  0  0  0  0  0  0
    2.8579   -5.7750    0.0000 C   0  0  0  0  0  0  0  0  0  0  0  0
    3.5724   -6.1875    0.0000 C   0  0  0  0  0  0  0  0  0  0  0  0
    3.5724   -7.0125    0.0000 C   0  0  0  0  0  0  0  0  0  0  0  0
    2.8579   -7.4250    0.0000 C   0  0  0  0  0  0  0  0  0  0  0  0
    2.8579   -8.2500    0.0000 C   0  0  0  0  0  0  0  0  0  0  0  0
    2.1434   -7.0125    0.0000 C   0  0  0  0  0  0  0  0  0  0  0  0
    1.4289   -7.4250    0.0000 O   0  0  0  0  0  0  0  0  0  0  0  0
    1.4289   -8.2500    0.0000 C   0  0  0  0  0  0  0  0  0  0  0  0
    0.7145   -8.6625    0.0000 C   0  0  0  0  0  0  0  0  0  0  0  0
    0.7145   -9.4875    0.0000 C   0  0  0  0  0  0  0  0  0  0  0  0
    0.0000   -9.9000    0.0000 C   0  0  0  0  0  0  0  0  0  0  0  0
   -0.4125   -9.1855    0.0000 C   0  0  0  0  0  0  0  0  0  0  0  0
    0.4125  -10.6145    0.0000 C   0  0  0  0  0  0  0  0  0  0  0  0
   -0.7145  -10.3125    0.0000 C   0  0  0  0  0  0  0  0  0  0  0  0
   -1.4289   -9.9000    0.0000 O   0  0  0  0  0  0  0  0  0  0  0  0
   -0.7145  -11.1375    0.0000 O   0  0  0  0  0  0  0  0  0  0  0  0
   -1.4289  -11.5500    0.0000 C   0  0  2  0  0  0  0  0  0  0  0  0
   -1.4289  -12.3750    0.0000 O   0  0  0  0  0  0  0  0  0  0  0  0
   -2.1434  -12.7875    0.0000 C   0  0  2  0  0  0  0  0  0  0  0  0
   -2.1434  -13.6125    0.0000 C   0  0  0  0  0  0  0  0  0  0  0  0
   -1.4289  -14.0250    0.0000 O   0  0  0  0  0  0  0  0  0  0  0  0
   -2.8579  -14.0250    0.0000 O   0  0  0  0  0  0  0  0  0  0  0  0
   -2.8579  -12.3750    0.0000 C   0  0  1  0  0  0  0  0  0  0  0  0
   -3.5724  -12.7875    0.0000 O   0  0  0  0  0  0  0  0  0  0  0  0
   -2.8579  -11.5500    0.0000 C   0  0  2  0  0  0  0  0  0  0  0  0
   -3.5724  -11.1375    0.0000 O   0  0  0  0  0  0  0  0  0  0  0  0
   -2.1434  -11.1375    0.0000 C   0  0  1  0  0  0  0  0  0  0  0  0
   -2.1434  -10.3125    0.0000 O   0  0  0  0  0  0  0  0  0  0  0  0
    2.1434   -6.1875    0.0000 C   0  0  0  0  0  0  0  0  0  0  0  0
  1  2  1  0  0  0  0
  2  3  4  0  0  0  0
  3  4  4  0  0  0  0
  4  5  4  0  0  0  0
  5  6  1  0  0  0  0
  5  7  4  0  0  0  0
  7  8  1  0  0  0  0
  8  9  1  0  0  0  0
  9 10  1  0  0  0  0
 10 11  1  0  0  0  0
 11 12  1  0  0  0  0
 12 13  1  0  0  0  0
 12 14  1  0  0  0  0
 12 15  1  0  0  0  0
 15 16  2  0  0  0  0
 15 17  1  0  0  0  0
 18 17  1  6  0  0  0
 18 19  1  0  0  0  0
 20 19  1  0  0  0  0
 20 21  1  6  0  0  0
 21 22  2  0  0  0  0
 21 23  1  0  0  0  0
 24 20  1  0  0  0  0
 24 25  1  1  0  0  0
 24 26  1  0  0  0  0
 26 27  1  6  0  0  0
 26 28  1  0  0  0  0
 28 18  1  0  0  0  0
 28 29  1  1  0  0  0
  7 30  4  0  0  0  0
  2 30  4  0  0  0  0
M  END
>  <CdId>
81

>  <Mol Weight>
426.462

>  <Formula>
C21H30O9

>  <Molecule ChEMBL ID>
CHEMBL2181817

>  <Molecule Max Phase>
None

>  <Molecular Weight>
426.46

>  <#RO5 Violations>
0

>  <AlogP>
0.92

>  <Compound Key>
Gemfibrozil-1-O-beta-glucuronide

>  <Standard Type>
IC50

>  <Standard Relation>
'='

>  <Standard Value>
28000.0

>  <Standard Units>
nM

$$$$

  Mrv2114 03112311372D          

 18 18  0  0  0  0            999 V2000
    0.7145    2.0625    0.0000 C   0  0  0  0  0  0  0  0  0  0  0  0
    0.7145    1.2375    0.0000 C   0  0  0  0  0  0  0  0  0  0  0  0
    1.4289    0.8250    0.0000 C   0  0  0  0  0  0  0  0  0  0  0  0
    1.4289   -0.0000    0.0000 C   0  0  0  0  0  0  0  0  0  0  0  0
    0.7145   -0.4125    0.0000 C   0  0  0  0  0  0  0  0  0  0  0  0
    0.7145   -1.2375    0.0000 C   0  0  0  0  0  0  0  0  0  0  0  0
    0.0000    0.0000    0.0000 C   0  0  0  0  0  0  0  0  0  0  0  0
   -0.7145   -0.4125    0.0000 O   0  0  0  0  0  0  0  0  0  0  0  0
   -0.7145   -1.2375    0.0000 C   0  0  0  0  0  0  0  0  0  0  0  0
   -1.4289   -1.6500    0.0000 C   0  0  0  0  0  0  0  0  0  0  0  0
   -1.4289   -2.4750    0.0000 C   0  0  0  0  0  0  0  0  0  0  0  0
   -2.1434   -2.8875    0.0000 C   0  0  0  0  0  0  0  0  0  0  0  0
   -2.5559   -2.1730    0.0000 C   0  0  0  0  0  0  0  0  0  0  0  0
   -1.7309   -3.6020    0.0000 C   0  0  0  0  0  0  0  0  0  0  0  0
   -2.8579   -3.3000    0.0000 C   0  0  0  0  0  0  0  0  0  0  0  0
   -2.8579   -4.1250    0.0000 O   0  0  0  0  0  0  0  0  0  0  0  0
   -3.5724   -2.8875    0.0000 O   0  0  0  0  0  0  0  0  0  0  0  0
    0.0000    0.8250    0.0000 C   0  0  0  0  0  0  0  0  0  0  0  0
  1  2  1  0  0  0  0
  2  3  4  0  0  0  0
  3  4  4  0  0  0  0
  4  5  4  0  0  0  0
  5  6  1  0  0  0  0
  5  7  4  0  0  0  0
  7  8  1  0  0  0  0
  8  9  1  0  0  0  0
  9 10  1  0  0  0  0
 10 11  1  0  0  0  0
 11 12  1  0  0  0  0
 12 13  1  0  0  0  0
 12 14  1  0  0  0  0
 12 15  1  0  0  0  0
 15 16  2  0  0  0  0
 15 17  1  0  0  0  0
  7 18  4  0  0  0  0
  2 18  4  0  0  0  0
M  END
>  <CdId>
82

>  <Mol Weight>
250.338

>  <Formula>
C15H22O3

>  <Molecule ChEMBL ID>
CHEMBL457

>  <Molecule Name>
GEMFIBROZIL

>  <Molecule Max Phase>
4

>  <Molecular Weight>
250.34

>  <#RO5 Violations>
0

>  <AlogP>
3.57

>  <Compound Key>
Gemfibrozil

>  <Standard Type>
IC50

>  <Standard Relation>
'='

>  <Standard Value>
4100.0

>  <Standard Units>
nM

$$$$

  Mrv2114 03112311372D          

 43 48  0  0  0  0            999 V2000
    6.9246    0.6979    0.0000 C   0  0  0  0  0  0  0  0  0  0  0  0
    6.2102    1.1104    0.0000 C   0  0  0  0  0  0  0  0  0  0  0  0
    5.4957    0.6979    0.0000 O   0  0  0  0  0  0  0  0  0  0  0  0
    6.2102    1.9354    0.0000 N   0  0  0  0  0  0  0  0  0  0  0  0
    5.4957    2.3479    0.0000 C   0  0  0  0  0  0  0  0  0  0  0  0
    5.4957    3.1729    0.0000 C   0  0  0  0  0  0  0  0  0  0  0  0
    4.7812    3.5854    0.0000 C   0  0  0  0  0  0  0  0  0  0  0  0
    4.0668    3.1729    0.0000 C   0  0  0  0  0  0  0  0  0  0  0  0
    4.0668    2.3479    0.0000 C   0  0  0  0  0  0  0  0  0  0  0  0
    3.3523    1.9354    0.0000 C   0  0  0  0  0  0  0  0  0  0  0  0
    3.3523    1.1104    0.0000 C   0  0  0  0  0  0  0  0  0  0  0  0
    2.6378    0.6979    0.0000 C   0  0  0  0  0  0  0  0  0  0  0  0
    1.9233    1.1104    0.0000 C   0  0  0  0  0  0  0  0  0  0  0  0
    1.1387    0.8555    0.0000 N   0  0  0  0  0  0  0  0  0  0  0  0
    0.6538    1.5229    0.0000 C   0  0  0  0  0  0  0  0  0  0  0  0
   -0.1712    1.5229    0.0000 C   0  0  0  0  0  0  0  0  0  0  0  0
   -0.5837    2.2374    0.0000 C   0  0  0  0  0  0  0  0  0  0  0  0
   -1.4087    2.2374    0.0000 C   0  0  0  0  0  0  0  0  0  0  0  0
   -1.8212    1.5229    0.0000 C   0  0  0  0  0  0  0  0  0  0  0  0
   -1.4087    0.8085    0.0000 N   0  0  0  0  0  0  0  0  0  0  0  0
   -0.5837    0.8085    0.0000 C   0  0  0  0  0  0  0  0  0  0  0  0
   -0.1712    0.0940    0.0000 N   0  0  0  0  0  0  0  0  0  0  0  0
    1.1387    2.1904    0.0000 N   0  0  0  0  0  0  0  0  0  0  0  0
    0.8838    2.9750    0.0000 C   0  0  0  0  0  0  0  0  0  0  0  0
    0.0768    3.1465    0.0000 C   0  0  0  0  0  0  0  0  0  0  0  0
   -0.1781    3.9312    0.0000 C   0  0  0  0  0  0  0  0  0  0  0  0
    0.3739    4.5442    0.0000 C   0  0  0  0  0  0  0  0  0  0  0  0
    0.1190    5.3289    0.0000 C   0  0  0  0  0  0  0  0  0  0  0  0
    0.6710    5.9420    0.0000 N   0  0  0  0  0  0  0  0  0  0  0  0
    0.4161    6.7266    0.0000 C   0  0  0  0  0  0  0  0  0  0  0  0
    0.9681    7.3397    0.0000 O   0  0  0  0  0  0  0  0  0  0  0  0
   -0.3909    6.8981    0.0000 C   0  0  0  0  0  0  0  0  0  0  0  0
   -0.9429    6.2850    0.0000 C   0  0  0  0  0  0  0  0  0  0  0  0
   -1.7499    6.4565    0.0000 C   0  0  0  0  0  0  0  0  0  0  0  0
   -2.0049    7.2412    0.0000 C   0  0  0  0  0  0  0  0  0  0  0  0
   -1.4528    7.8543    0.0000 C   0  0  0  0  0  0  0  0  0  0  0  0
   -1.7078    8.6389    0.0000 F   0  0  0  0  0  0  0  0  0  0  0  0
   -0.6459    7.6827    0.0000 C   0  0  0  0  0  0  0  0  0  0  0  0
    1.1809    4.3727    0.0000 C   0  0  0  0  0  0  0  0  0  0  0  0
    1.4358    3.5881    0.0000 C   0  0  0  0  0  0  0  0  0  0  0  0
    1.9233    1.9354    0.0000 C   0  0  0  0  0  0  0  0  0  0  0  0
    2.6378    2.3479    0.0000 N   0  0  0  0  0  0  0  0  0  0  0  0
    4.7812    1.9354    0.0000 C   0  0  0  0  0  0  0  0  0  0  0  0
  1  2  1  0  0  0  0
  2  3  2  0  0  0  0
  2  4  1  0  0  0  0
  4  5  1  0  0  0  0
  5  6  4  0  0  0  0
  6  7  4  0  0  0  0
  7  8  4  0  0  0  0
  8  9  4  0  0  0  0
  9 10  1  0  0  0  0
 10 11  4  0  0  0  0
 11 12  4  0  0  0  0
 12 13  4  0  0  0  0
 13 14  4  0  0  0  0
 14 15  4  0  0  0  0
 15 16  1  0  0  0  0
 16 17  4  0  0  0  0
 17 18  4  0  0  0  0
 18 19  4  0  0  0  0
 19 20  4  0  0  0  0
 20 21  4  0  0  0  0
 16 21  4  0  0  0  0
 21 22  1  0  0  0  0
 15 23  4  0  0  0  0
 23 24  1  0  0  0  0
 24 25  4  0  0  0  0
 25 26  4  0  0  0  0
 26 27  4  0  0  0  0
 27 28  1  0  0  0  0
 28 29  1  0  0  0  0
 29 30  1  0  0  0  0
 30 31  2  0  0  0  0
 30 32  1  0  0  0  0
 32 33  4  0  0  0  0
 33 34  4  0  0  0  0
 34 35  4  0  0  0  0
 35 36  4  0  0  0  0
 36 37  1  0  0  0  0
 36 38  4  0  0  0  0
 32 38  4  0  0  0  0
 27 39  4  0  0  0  0
 39 40  4  0  0  0  0
 24 40  4  0  0  0  0
 23 41  4  0  0  0  0
 13 41  4  0  0  0  0
 41 42  4  0  0  0  0
 10 42  4  0  0  0  0
  9 43  4  0  0  0  0
  5 43  4  0  0  0  0
M  END
>  <CdId>
83

>  <Mol Weight>
571.616

>  <Formula>
C33H26FN7O2

>  <Molecule ChEMBL ID>
CHEMBL2177836

>  <Molecule Max Phase>
None

>  <Molecular Weight>
571.62

>  <#RO5 Violations>
2

>  <AlogP>
5.76

>  <Compound Key>
12j

>  <Standard Type>
IC50

>  <Standard Relation>
'='

>  <Standard Value>
1000.0

>  <Standard Units>
nM

$$$$

  Mrv2114 03112311372D          

 33 36  0  0  1  0            999 V2000
    5.4223    1.6500    0.0000 C   0  0  0  0  0  0  0  0  0  0  0  0
    4.7079    2.0625    0.0000 S   0  0  0  0  0  0  0  0  0  0  0  0
    5.1204    2.7770    0.0000 O   0  0  0  0  0  0  0  0  0  0  0  0
    4.2954    1.3480    0.0000 O   0  0  0  0  0  0  0  0  0  0  0  0
    3.9934    2.4750    0.0000 C   0  0  0  0  0  0  0  0  0  0  0  0
    3.9934    3.3000    0.0000 C   0  0  0  0  0  0  0  0  0  0  0  0
    3.2789    3.7125    0.0000 C   0  0  0  0  0  0  0  0  0  0  0  0
    3.2789    4.5375    0.0000 C   0  0  0  0  0  0  0  0  0  0  0  0
    3.2789    5.3625    0.0000 N   0  0  0  0  0  0  0  0  0  0  0  0
    2.5645    3.3000    0.0000 C   0  0  0  0  0  0  0  0  0  0  0  0
    2.5645    2.4750    0.0000 C   0  0  0  0  0  0  0  0  0  0  0  0
    3.2789    2.0625    0.0000 C   0  0  0  0  0  0  0  0  0  0  0  0
    3.2789    1.2375    0.0000 C   0  0  1  0  0  0  0  0  0  0  0  0
    3.9934    0.8250    0.0000 N   0  0  0  0  0  0  0  0  0  0  0  0
    3.9934    0.0000    0.0000 C   0  0  0  0  0  0  0  0  0  0  0  0
    4.7079   -0.4125    0.0000 O   0  0  0  0  0  0  0  0  0  0  0  0
    3.2789   -0.4125    0.0000 N   0  0  0  0  0  0  0  0  0  0  0  0
    3.2789   -1.2375    0.0000 C   0  0  0  0  0  0  0  0  0  0  0  0
    3.9934   -1.6500    0.0000 C   0  0  0  0  0  0  0  0  0  0  0  0
    3.9934   -2.4750    0.0000 C   0  0  0  0  0  0  0  0  0  0  0  0
    3.2789   -2.8875    0.0000 C   0  0  0  0  0  0  0  0  0  0  0  0
    2.5645   -2.4750    0.0000 C   0  0  0  0  0  0  0  0  0  0  0  0
    1.8500   -2.8875    0.0000 C   0  0  0  0  0  0  0  0  0  0  0  0
    1.1355   -3.3000    0.0000 F   0  0  0  0  0  0  0  0  0  0  0  0
    1.4375   -2.1730    0.0000 F   0  0  0  0  0  0  0  0  0  0  0  0
    2.2625   -3.6020    0.0000 F   0  0  0  0  0  0  0  0  0  0  0  0
    2.5645   -1.6500    0.0000 C   0  0  0  0  0  0  0  0  0  0  0  0
    2.5645    0.0000    0.0000 C   0  0  0  0  0  0  0  0  0  0  0  0
    2.5645    0.8250    0.0000 C   0  0  0  0  0  0  0  0  0  0  0  0
    1.7798    1.0799    0.0000 C   0  0  0  0  0  0  0  0  0  0  0  0
    1.5249    1.8646    0.0000 O   0  0  0  0  0  0  0  0  0  0  0  0
    1.2949    0.4125    0.0000 C   0  0  0  0  0  0  0  0  0  0  0  0
    1.7798   -0.2549    0.0000 C   0  0  0  0  0  0  0  0  0  0  0  0
  1  2  1  0  0  0  0
  2  3  2  0  0  0  0
  2  4  2  0  0  0  0
  2  5  1  0  0  0  0
  5  6  4  0  0  0  0
  6  7  4  0  0  0  0
  7  8  1  0  0  0  0
  8  9  3  0  0  0  0
  7 10  4  0  0  0  0
 10 11  4  0  0  0  0
 11 12  4  0  0  0  0
  5 12  4  0  0  0  0
 13 12  1  1  0  0  0
 13 14  1  0  0  0  0
 14 15  1  0  0  0  0
 15 16  2  0  0  0  0
 15 17  1  0  0  0  0
 17 18  1  0  0  0  0
 18 19  4  0  0  0  0
 19 20  4  0  0  0  0
 20 21  4  0  0  0  0
 21 22  4  0  0  0  0
 22 23  1  0  0  0  0
 23 24  1  0  0  0  0
 23 25  1  0  0  0  0
 23 26  1  0  0  0  0
 22 27  4  0  0  0  0
 18 27  4  0  0  0  0
 17 28  1  0  0  0  0
 28 29  2  0  0  0  0
 13 29  1  0  0  0  0
 29 30  1  0  0  0  0
 30 31  2  0  0  0  0
 30 32  1  0  0  0  0
 32 33  1  0  0  0  0
 28 33  1  0  0  0  0
M  END
>  <CdId>
84

>  <Mol Weight>
475.44

>  <Formula>
C22H16F3N3O4S

>  <Molecule ChEMBL ID>
CHEMBL4112385

>  <Molecule Max Phase>
None

>  <Molecular Weight>
475.45

>  <#RO5 Violations>
0

>  <AlogP>
3.87

>  <Compound Key>
BDBM211757

>  <Standard Type>
IC50

>  <Standard Relation>
'>'

>  <Standard Value>
50000.0

>  <Standard Units>
nM

$$$$

  Mrv2114 03112311372D          

 37 42  0  0  1  0            999 V2000
   -8.6715    5.4378    0.0000 C   0  0  0  0  0  0  0  0  0  0  0  0
   -8.4165    4.6531    0.0000 C   0  0  2  0  0  0  0  0  0  0  0  0
   -7.6095    4.4816    0.0000 C   0  0  0  0  0  0  0  0  0  0  0  0
   -7.3546    3.6970    0.0000 N   0  0  0  0  0  0  0  0  0  0  0  0
   -6.5476    3.5255    0.0000 C   0  0  0  0  0  0  0  0  0  0  0  0
   -5.9956    4.1386    0.0000 C   0  0  0  0  0  0  0  0  0  0  0  0
   -5.1886    3.9670    0.0000 C   0  0  0  0  0  0  0  0  0  0  0  0
   -4.6366    4.5801    0.0000 F   0  0  0  0  0  0  0  0  0  0  0  0
   -4.9337    3.1824    0.0000 C   0  0  0  0  0  0  0  0  0  0  0  0
   -5.4857    2.5693    0.0000 C   0  0  0  0  0  0  0  0  0  0  0  0
   -6.2927    2.7408    0.0000 C   0  0  0  0  0  0  0  0  0  0  0  0
   -5.0732    1.8548    0.0000 N   0  0  0  0  0  0  0  0  0  0  0  0
   -5.4088    1.1012    0.0000 C   0  0  0  0  0  0  0  0  0  0  0  0
   -4.2663    2.0264    0.0000 C   0  0  0  0  0  0  0  0  0  0  0  0
   -3.6532    1.4743    0.0000 O   0  0  0  0  0  0  0  0  0  0  0  0
   -4.1800    2.8468    0.0000 C   0  0  0  0  0  0  0  0  0  0  0  0
   -4.1800    3.6718    0.0000 C   0  0  0  0  0  0  0  0  0  0  0  0
   -3.4655    4.0843    0.0000 C   0  0  0  0  0  0  0  0  0  0  0  0
   -2.7511    3.6718    0.0000 N   0  0  0  0  0  0  0  0  0  0  0  0
   -2.0366    4.0843    0.0000 C   0  0  0  0  0  0  0  0  0  0  0  0
   -1.3221    3.6718    0.0000 N   0  0  0  0  0  0  0  0  0  0  0  0
   -0.6077    4.0843    0.0000 C   0  0  0  0  0  0  0  0  0  0  0  0
   -0.6077    4.9093    0.0000 C   0  0  0  0  0  0  0  0  0  0  0  0
   -1.3221    5.3218    0.0000 C   0  0  0  0  0  0  0  0  0  0  0  0
   -1.3221    6.1468    0.0000 O   0  0  0  0  0  0  0  0  0  0  0  0
   -2.0366    4.9093    0.0000 N   0  0  0  0  0  0  0  0  0  0  0  0
    0.1068    5.3218    0.0000 C   0  0  0  0  0  0  0  0  0  0  0  0
    0.8213    4.9093    0.0000 C   0  0  0  0  0  0  0  0  0  0  0  0
    0.8213    4.0843    0.0000 C   0  0  0  0  0  0  0  0  0  0  0  0
    0.1068    3.6718    0.0000 N   0  0  0  0  0  0  0  0  0  0  0  0
    0.1068    2.8468    0.0000 C   0  0  0  0  0  0  0  0  0  0  0  0
   -2.7511    2.8468    0.0000 C   0  0  0  0  0  0  0  0  0  0  0  0
   -3.4655    2.4343    0.0000 C   0  0  0  0  0  0  0  0  0  0  0  0
   -7.9066    3.0839    0.0000 C   0  0  0  0  0  0  0  0  0  0  0  0
   -8.7136    3.2554    0.0000 C   0  0  2  0  0  0  0  0  0  0  0  0
   -9.2656    2.6423    0.0000 C   0  0  0  0  0  0  0  0  0  0  0  0
   -8.9686    4.0400    0.0000 O   0  0  0  0  0  0  0  0  0  0  0  0
  2  1  1  6  0  0  0
  2  3  1  0  0  0  0
  3  4  1  0  0  0  0
  4  5  1  0  0  0  0
  5  6  4  0  0  0  0
  6  7  4  0  0  0  0
  7  8  1  0  0  0  0
  7  9  4  0  0  0  0
  9 10  4  0  0  0  0
 10 11  4  0  0  0  0
  5 11  4  0  0  0  0
 10 12  1  0  0  0  0
 12 13  1  0  0  0  0
 12 14  1  0  0  0  0
 14 15  2  0  0  0  0
 14 16  1  0  0  0  0
  9 16  1  0  0  0  0
 16 17  1  0  0  0  0
 17 18  1  0  0  0  0
 18 19  1  0  0  0  0
 19 20  1  0  0  0  0
 20 21  4  0  0  0  0
 21 22  4  0  0  0  0
 22 23  4  0  0  0  0
 23 24  4  0  0  0  0
 24 25  2  0  0  0  0
 24 26  4  0  0  0  0
 20 26  4  0  0  0  0
 23 27  1  0  0  0  0
 27 28  1  0  0  0  0
 28 29  1  0  0  0  0
 29 30  1  0  0  0  0
 22 30  1  0  0  0  0
 30 31  1  0  0  0  0
 19 32  1  0  0  0  0
 32 33  1  0  0  0  0
 16 33  1  0  0  0  0
  4 34  1  0  0  0  0
 35 34  1  0  0  0  0
 35 36  1  6  0  0  0
 35 37  1  0  0  0  0
  2 37  1  0  0  0  0
M  STY  1   1 DAT
M  SAL   1  1  26
M  SDT   1 MRV_IMPLICIT_H                                        
M  SDD   1     0.0000    0.0000    DR    ALL  0       0  
M  SED   1 IMPL_H1
M  END
>  <CdId>
85

>  <Mol Weight>
510.614

>  <Formula>
C27H35FN6O3

>  <Molecule ChEMBL ID>
CHEMBL4449082

>  <Molecule Max Phase>
None

>  <Molecular Weight>
510.61

>  <#RO5 Violations>
1

>  <AlogP>
2.42

>  <Compound Key>
41g; RK-582

>  <Standard Type>
IC50

>  <Standard Relation>
'>'

>  <Standard Value>
10000.0

>  <Standard Units>
nM

$$$$

  Mrv2114 03112311372D          

 27 29  0  0  0  0            999 V2000
    0.4210    2.0625    0.0000 C   0  0  0  0  0  0  0  0  0  0  0  0
    1.1355    2.4750    0.0000 O   0  0  0  0  0  0  0  0  0  0  0  0
    1.8500    2.0625    0.0000 C   0  0  0  0  0  0  0  0  0  0  0  0
    1.3651    1.3951    0.0000 O   0  0  0  0  0  0  0  0  0  0  0  0
    2.5645    2.4750    0.0000 C   0  0  0  0  0  0  0  0  0  0  0  0
    2.5645    3.3000    0.0000 C   0  0  0  0  0  0  0  0  0  0  0  0
    1.8500    3.7125    0.0000 C   0  0  0  0  0  0  0  0  0  0  0  0
    3.2789    3.7125    0.0000 N   0  0  0  0  0  0  0  0  0  0  0  0
    3.9934    3.3000    0.0000 C   0  0  0  0  0  0  0  0  0  0  0  0
    4.7079    3.7125    0.0000 C   0  0  0  0  0  0  0  0  0  0  0  0
    3.9934    2.4750    0.0000 C   0  0  0  0  0  0  0  0  0  0  0  0
    4.7079    2.0625    0.0000 C   0  0  0  0  0  0  0  0  0  0  0  0
    4.7079    1.2375    0.0000 O   0  0  0  0  0  0  0  0  0  0  0  0
    5.4223    2.4750    0.0000 O   0  0  0  0  0  0  0  0  0  0  0  0
    6.1368    2.0625    0.0000 C   0  0  0  0  0  0  0  0  0  0  0  0
    6.8513    2.4750    0.0000 C   0  0  0  0  0  0  0  0  0  0  0  0
    6.1368    1.2375    0.0000 C   0  0  0  0  0  0  0  0  0  0  0  0
    3.2789    2.0625    0.0000 C   0  0  0  0  0  0  0  0  0  0  0  0
    3.2789    1.2375    0.0000 C   0  0  0  0  0  0  0  0  0  0  0  0
    3.9934    0.8250    0.0000 C   0  0  0  0  0  0  0  0  0  0  0  0
    3.9934    0.0000    0.0000 C   0  0  0  0  0  0  0  0  0  0  0  0
    3.2789   -0.4125    0.0000 C   0  0  0  0  0  0  0  0  0  0  0  0
    2.5645    0.0000    0.0000 C   0  0  0  0  0  0  0  0  0  0  0  0
    1.7798   -0.2549    0.0000 N   0  0  0  0  0  0  0  0  0  0  0  0
    1.2949    0.4125    0.0000 O   0  0  0  0  0  0  0  0  0  0  0  0
    1.7798    1.0799    0.0000 N   0  0  0  0  0  0  0  0  0  0  0  0
    2.5645    0.8250    0.0000 C   0  0  0  0  0  0  0  0  0  0  0  0
  1  2  1  0  0  0  0
  2  3  1  0  0  0  0
  3  4  2  0  0  0  0
  3  5  1  0  0  0  0
  5  6  2  0  0  0  0
  6  7  1  0  0  0  0
  6  8  1  0  0  0  0
  8  9  1  0  0  0  0
  9 10  1  0  0  0  0
  9 11  2  0  0  0  0
 11 12  1  0  0  0  0
 12 13  2  0  0  0  0
 12 14  1  0  0  0  0
 14 15  1  0  0  0  0
 15 16  1  0  0  0  0
 15 17  1  0  0  0  0
 11 18  1  0  0  0  0
  5 18  1  0  0  0  0
 18 19  1  0  0  0  0
 19 20  4  0  0  0  0
 20 21  4  0  0  0  0
 21 22  4  0  0  0  0
 22 23  4  0  0  0  0
 23 24  4  0  0  0  0
 24 25  4  0  0  0  0
 25 26  4  0  0  0  0
 26 27  4  0  0  0  0
 19 27  4  0  0  0  0
 23 27  4  0  0  0  0
M  END
>  <CdId>
86

>  <Mol Weight>
371.393

>  <Formula>
C19H21N3O5

>  <Molecule ChEMBL ID>
CHEMBL1648

>  <Molecule Name>
ISRADIPINE

>  <Molecule Max Phase>
4

>  <Molecular Weight>
371.39

>  <#RO5 Violations>
0

>  <AlogP>
2.58

>  <Compound Key>
Isradipine

>  <Standard Type>
IC50

>  <Standard Relation>
'='

>  <Standard Value>
5000.0

>  <Standard Units>
nM

$$$$

  Mrv2114 03112311372D          

 34 38  0  0  1  0            999 V2000
    3.5724   -2.8875    0.0000 C   0  0  0  0  0  0  0  0  0  0  0  0
    2.8579   -2.4750    0.0000 C   0  0  0  0  0  0  0  0  0  0  0  0
    2.1434   -2.8875    0.0000 C   0  0  0  0  0  0  0  0  0  0  0  0
    1.4289   -2.4750    0.0000 N   0  0  0  0  0  0  0  0  0  0  0  0
    0.7145   -2.8875    0.0000 C   0  0  0  0  0  0  0  0  0  0  0  0
    0.0000   -2.4750    0.0000 C   0  0  1  0  0  0  0  0  0  0  0  0
   -0.7145   -2.8875    0.0000 C   0  0  0  0  0  0  0  0  0  0  0  0
   -1.4289   -2.4750    0.0000 C   0  0  0  0  0  0  0  0  0  0  0  0
   -2.1434   -2.8875    0.0000 C   0  0  0  0  0  0  0  0  0  0  0  0
   -2.8579   -2.4750    0.0000 C   0  0  0  0  0  0  0  0  0  0  0  0
   -2.8579   -1.6500    0.0000 C   0  0  0  0  0  0  0  0  0  0  0  0
   -2.1434   -1.2375    0.0000 C   0  0  0  0  0  0  0  0  0  0  0  0
   -1.4289   -1.6500    0.0000 C   0  0  0  0  0  0  0  0  0  0  0  0
   -0.7145   -1.2375    0.0000 C   0  0  0  0  0  0  0  0  0  0  0  0
    0.0000   -1.6500    0.0000 N   0  0  0  0  0  0  0  0  0  0  0  0
    1.4289   -1.6500    0.0000 C   0  0  1  0  0  0  0  0  0  0  0  0
    0.7145   -1.2375    0.0000 C   0  0  0  0  0  0  0  0  0  0  0  0
    0.7145   -0.4125    0.0000 C   0  0  0  0  0  0  0  0  0  0  0  0
    1.4289    0.0000    0.0000 C   0  0  0  0  0  0  0  0  0  0  0  0
    2.1434   -0.4125    0.0000 C   0  0  0  0  0  0  0  0  0  0  0  0
    2.8579    0.0000    0.0000 C   0  0  0  0  0  0  0  0  0  0  0  0
    3.5724   -0.4125    0.0000 C   0  0  0  0  0  0  0  0  0  0  0  0
    3.5724   -1.2375    0.0000 C   0  0  0  0  0  0  0  0  0  0  0  0
    2.8579   -1.6500    0.0000 N   0  0  0  0  0  0  0  0  0  0  0  0
    2.1434   -1.2375    0.0000 C   0  0  0  0  0  0  0  0  0  0  0  0
    4.2868   -2.4750    0.0000 C   0  0  0  0  0  0  0  0  0  0  0  0
    5.0013   -2.8875    0.0000 N   0  0  0  0  0  0  0  0  0  0  0  0
    5.7158   -2.4750    0.0000 C   0  0  0  0  0  0  0  0  0  0  0  0
    6.4302   -2.8875    0.0000 C   0  0  0  0  0  0  0  0  0  0  0  0
    7.1447   -2.4750    0.0000 C   0  0  0  0  0  0  0  0  0  0  0  0
    7.8592   -2.8875    0.0000 C   0  0  0  0  0  0  0  0  0  0  0  0
    7.8592   -3.7125    0.0000 O   0  0  0  0  0  0  0  0  0  0  0  0
    7.1447   -4.1250    0.0000 C   0  0  0  0  0  0  0  0  0  0  0  0
    6.4302   -3.7125    0.0000 C   0  0  0  0  0  0  0  0  0  0  0  0
  1  2  2  0  0  0  0
  2  3  1  0  0  0  0
  3  4  1  0  0  0  0
  4  5  1  0  0  0  0
  6  5  1  1  0  0  0
  6  7  1  0  0  0  0
  7  8  1  0  0  0  0
  8  9  4  0  0  0  0
  9 10  4  0  0  0  0
 10 11  4  0  0  0  0
 11 12  4  0  0  0  0
 12 13  4  0  0  0  0
  8 13  4  0  0  0  0
 13 14  1  0  0  0  0
 14 15  1  0  0  0  0
  6 15  1  0  0  0  0
 16  4  1  1  0  0  0
 16 17  1  0  0  0  0
 17 18  1  0  0  0  0
 18 19  1  0  0  0  0
 19 20  1  0  0  0  0
 20 21  4  0  0  0  0
 21 22  4  0  0  0  0
 22 23  4  0  0  0  0
 23 24  4  0  0  0  0
 24 25  4  0  0  0  0
 20 25  4  0  0  0  0
 16 25  1  0  0  0  0
  1 26  1  4  0  0  0
 26 27  1  0  0  0  0
 27 28  1  0  0  0  0
 28 29  1  0  0  0  0
 29 30  1  0  0  0  0
 30 31  1  0  0  0  0
 31 32  1  0  0  0  0
 32 33  1  0  0  0  0
 33 34  1  0  0  0  0
 29 34  1  0  0  0  0
M  END
>  <CdId>
87

>  <Mol Weight>
460.666

>  <Formula>
C29H40N4O

>  <Molecule ChEMBL ID>
CHEMBL4070320

>  <Molecule Max Phase>
None

>  <Molecular Weight>
460.67

>  <#RO5 Violations>
0

>  <AlogP>
4.05

>  <Compound Key>
45

>  <Standard Type>
IC50

>  <Standard Relation>
'<'

>  <Standard Value>
5000.0

>  <Standard Units>
nM

$$$$

  Mrv2114 03112311372D          

 28 31  0  0  0  0            999 V2000
    5.4896   -1.6384    0.0000 O   0  0  0  0  0  0  0  0  0  0  0  0
    5.6358   -0.8265    0.0000 C   0  0  0  0  0  0  0  0  0  0  0  0
    5.0058   -0.2939    0.0000 C   0  0  0  0  0  0  0  0  0  0  0  0
    4.2295   -0.5732    0.0000 C   0  0  0  0  0  0  0  0  0  0  0  0
    3.5995   -0.0406    0.0000 C   0  0  0  0  0  0  0  0  0  0  0  0
    3.6601    0.7822    0.0000 N   0  0  0  0  0  0  0  0  0  0  0  0
    2.8963    1.0941    0.0000 O   0  0  0  0  0  0  0  0  0  0  0  0
    2.3637    0.4640    0.0000 C   0  0  0  0  0  0  0  0  0  0  0  0
    2.7983   -0.2372    0.0000 C   0  0  0  0  0  0  0  0  0  0  0  0
    2.4083   -0.9642    0.0000 C   0  0  0  0  0  0  0  0  0  0  0  0
    1.5837   -0.9900    0.0000 C   0  0  0  0  0  0  0  0  0  0  0  0
    1.1491   -0.2887    0.0000 C   0  0  0  0  0  0  0  0  0  0  0  0
    0.3245   -0.3145    0.0000 C   0  0  0  0  0  0  0  0  0  0  0  0
   -0.1101    0.3867    0.0000 C   0  0  0  0  0  0  0  0  0  0  0  0
   -0.9347    0.3610    0.0000 O   0  0  0  0  0  0  0  0  0  0  0  0
    0.2799    1.1137    0.0000 C   0  0  0  0  0  0  0  0  0  0  0  0
    1.1045    1.1395    0.0000 C   0  0  0  0  0  0  0  0  0  0  0  0
    1.5391    0.4383    0.0000 C   0  0  0  0  0  0  0  0  0  0  0  0
    6.4121   -0.5472    0.0000 N   0  0  0  0  0  0  0  0  0  0  0  0
    7.0422   -1.0798    0.0000 C   0  0  0  0  0  0  0  0  0  0  0  0
    7.8184   -0.8005    0.0000 C   0  0  0  0  0  0  0  0  0  0  0  0
    7.9647    0.0115    0.0000 C   0  0  0  0  0  0  0  0  0  0  0  0
    7.3346    0.5441    0.0000 O   0  0  0  0  0  0  0  0  0  0  0  0
    8.7410    0.2908    0.0000 O   0  0  0  0  0  0  0  0  0  0  0  0
    8.4485   -1.3331    0.0000 C   0  0  0  0  0  0  0  0  0  0  0  0
    8.3022   -2.1450    0.0000 C   0  0  0  0  0  0  0  0  0  0  0  0
    7.5259   -2.4243    0.0000 C   0  0  0  0  0  0  0  0  0  0  0  0
    6.8959   -1.8917    0.0000 C   0  0  0  0  0  0  0  0  0  0  0  0
  1  2  2  0  0  0  0
  2  3  1  0  0  0  0
  3  4  1  0  0  0  0
  4  5  1  0  0  0  0
  5  6  4  0  0  0  0
  6  7  4  0  0  0  0
  7  8  4  0  0  0  0
  8  9  4  0  0  0  0
  5  9  4  0  0  0  0
  9 10  1  0  0  0  0
 10 11  1  0  0  0  0
 11 12  1  0  0  0  0
 12 13  4  0  0  0  0
 13 14  4  0  0  0  0
 14 15  1  0  0  0  0
 14 16  4  0  0  0  0
 16 17  4  0  0  0  0
 17 18  4  0  0  0  0
 12 18  4  0  0  0  0
  8 18  1  0  0  0  0
  2 19  1  0  0  0  0
 19 20  1  0  0  0  0
 20 21  2  0  0  0  0
 21 22  1  0  0  0  0
 22 23  2  0  0  0  0
 22 24  1  0  0  0  0
 21 25  1  0  0  0  0
 25 26  1  0  0  0  0
 26 27  1  0  0  0  0
 27 28  1  0  0  0  0
 20 28  1  0  0  0  0
M  END
>  <CdId>
88

>  <Mol Weight>
382.416

>  <Formula>
C21H22N2O5

>  <Molecule ChEMBL ID>
CHEMBL485196

>  <Molecule Max Phase>
None

>  <Molecular Weight>
382.42

>  <#RO5 Violations>
0

>  <AlogP>
3.11

>  <Compound Key>
3a

>  <Standard Type>
IC50

>  <Standard Relation>
'='

>  <Standard Value>
44000.0

>  <Standard Units>
nM

$$$$

  Mrv2114 03112311372D          

 27 30  0  0  0  0            999 V2000
    2.1434   -2.8875    0.0000 O   0  0  0  0  0  0  0  0  0  0  0  0
    1.4289   -2.4750    0.0000 C   0  0  0  0  0  0  0  0  0  0  0  0
    0.7145   -2.8875    0.0000 O   0  0  0  0  0  0  0  0  0  0  0  0
    1.4289   -1.6500    0.0000 C   0  0  0  0  0  0  0  0  0  0  0  0
    0.7145   -1.2375    0.0000 C   0  0  0  0  0  0  0  0  0  0  0  0
    0.0000   -1.6500    0.0000 O   0  0  0  0  0  0  0  0  0  0  0  0
    0.7145   -0.4125    0.0000 C   0  0  0  0  0  0  0  0  0  0  0  0
    0.0000    0.0000    0.0000 C   0  0  0  0  0  0  0  0  0  0  0  0
   -0.7145   -0.4125    0.0000 C   0  0  0  0  0  0  0  0  0  0  0  0
   -1.4289    0.0000    0.0000 C   0  0  0  0  0  0  0  0  0  0  0  0
   -1.4289    0.8250    0.0000 C   0  0  0  0  0  0  0  0  0  0  0  0
   -2.1434    1.2375    0.0000 Cl  0  0  0  0  0  0  0  0  0  0  0  0
   -0.7145    1.2375    0.0000 C   0  0  0  0  0  0  0  0  0  0  0  0
    0.0000    0.8250    0.0000 C   0  0  0  0  0  0  0  0  0  0  0  0
    1.4289    0.0000    0.0000 N   0  0  0  0  0  0  0  0  0  0  0  0
    2.1434   -0.4125    0.0000 C   0  0  0  0  0  0  0  0  0  0  0  0
    2.8579    0.0000    0.0000 C   0  0  0  0  0  0  0  0  0  0  0  0
    2.8579    0.8250    0.0000 C   0  0  0  0  0  0  0  0  0  0  0  0
    2.1434    1.2375    0.0000 C   0  0  0  0  0  0  0  0  0  0  0  0
    2.1434    2.0625    0.0000 C   0  0  0  0  0  0  0  0  0  0  0  0
    2.8579    2.4750    0.0000 C   0  0  0  0  0  0  0  0  0  0  0  0
    3.5724    2.0625    0.0000 C   0  0  0  0  0  0  0  0  0  0  0  0
    3.5724    1.2375    0.0000 C   0  0  0  0  0  0  0  0  0  0  0  0
    3.5724   -0.4125    0.0000 C   0  0  0  0  0  0  0  0  0  0  0  0
    3.5724   -1.2375    0.0000 C   0  0  0  0  0  0  0  0  0  0  0  0
    2.8579   -1.6500    0.0000 C   0  0  0  0  0  0  0  0  0  0  0  0
    2.1434   -1.2375    0.0000 C   0  0  0  0  0  0  0  0  0  0  0  0
  1  2  2  0  0  0  0
  2  3  1  0  0  0  0
  2  4  1  0  0  0  0
  4  5  4  0  0  0  0
  5  6  1  0  0  0  0
  5  7  4  0  0  0  0
  7  8  1  0  0  0  0
  8  9  4  0  0  0  0
  9 10  4  0  0  0  0
 10 11  4  0  0  0  0
 11 12  1  0  0  0  0
 11 13  4  0  0  0  0
 13 14  4  0  0  0  0
  8 14  4  0  0  0  0
  7 15  4  0  0  0  0
 15 16  4  0  0  0  0
 16 17  4  0  0  0  0
 17 18  1  0  0  0  0
 18 19  4  0  0  0  0
 19 20  4  0  0  0  0
 20 21  4  0  0  0  0
 21 22  4  0  0  0  0
 22 23  4  0  0  0  0
 18 23  4  0  0  0  0
 17 24  4  0  0  0  0
 24 25  4  0  0  0  0
 25 26  4  0  0  0  0
 26 27  4  0  0  0  0
  4 27  4  0  0  0  0
 16 27  4  0  0  0  0
M  END
>  <CdId>
89

>  <Mol Weight>
375.81

>  <Formula>
C22H14ClNO3

>  <Molecule ChEMBL ID>
CHEMBL218583

>  <Molecule Max Phase>
None

>  <Molecular Weight>
375.81

>  <#RO5 Violations>
1

>  <AlogP>
5.63

>  <Compound Key>
36

>  <Standard Type>
IC50

>  <Standard Relation>
'='

>  <Standard Value>
4800.0

>  <Standard Units>
nM

$$$$

  Mrv2114 03112311372D          

 21 22  0  0  0  0            999 V2000
    1.4289    0.0000    0.0000 C   0  0  0  0  0  0  0  0  0  0  0  0
    0.7145   -0.4125    0.0000 O   0  0  0  0  0  0  0  0  0  0  0  0
    0.7145   -1.2375    0.0000 C   0  0  0  0  0  0  0  0  0  0  0  0
    0.0000   -1.6500    0.0000 C   0  0  0  0  0  0  0  0  0  0  0  0
    0.0000   -2.4750    0.0000 C   0  0  0  0  0  0  0  0  0  0  0  0
    0.7145   -2.8875    0.0000 C   0  0  0  0  0  0  0  0  0  0  0  0
    0.7145   -3.7125    0.0000 Cl  0  0  0  0  0  0  0  0  0  0  0  0
    1.4289   -2.4750    0.0000 C   0  0  0  0  0  0  0  0  0  0  0  0
    1.4289   -1.6500    0.0000 C   0  0  0  0  0  0  0  0  0  0  0  0
    2.1434   -1.2375    0.0000 C   0  0  0  0  0  0  0  0  0  0  0  0
    2.1434   -0.4125    0.0000 C   0  0  0  0  0  0  0  0  0  0  0  0
    2.8579    0.0000    0.0000 C   0  0  0  0  0  0  0  0  0  0  0  0
    2.8579    0.8250    0.0000 O   0  0  0  0  0  0  0  0  0  0  0  0
    3.5724   -0.4125    0.0000 N   0  0  0  0  0  0  0  0  0  0  0  0
    3.5724   -1.2375    0.0000 C   0  0  0  0  0  0  0  0  0  0  0  0
    4.2868   -1.6500    0.0000 S   0  0  0  0  0  0  0  0  0  0  0  0
    2.8579   -1.6500    0.0000 N   0  0  0  0  0  0  0  0  0  0  0  0
    2.8579   -2.4750    0.0000 C   0  0  0  0  0  0  0  0  0  0  0  0
    3.5724   -2.8875    0.0000 C   0  0  0  0  0  0  0  0  0  0  0  0
    4.2868   -2.4750    0.0000 N   0  0  0  0  0  0  0  0  0  0  0  0
    3.5724   -3.7125    0.0000 O   0  0  0  0  0  0  0  0  0  0  0  0
  1  2  1  0  0  0  0
  2  3  1  0  0  0  0
  3  4  4  0  0  0  0
  4  5  4  0  0  0  0
  5  6  4  0  0  0  0
  6  7  1  0  0  0  0
  6  8  4  0  0  0  0
  8  9  4  0  0  0  0
  3  9  4  0  0  0  0
  9 10  1  0  0  0  0
 10 11  4  0  0  0  0
 11 12  4  0  0  0  0
 12 13  2  0  0  0  0
 12 14  4  0  0  0  0
 14 15  4  0  0  0  0
 15 16  2  0  0  0  0
 15 17  4  0  0  0  0
 10 17  4  0  0  0  0
 17 18  1  0  0  0  0
 18 19  1  0  0  0  0
 19 20  1  0  0  0  0
 19 21  2  0  0  0  0
M  STY  1   1 DAT
M  SAL   1  1  14
M  SDT   1 MRV_IMPLICIT_H                                        
M  SDD   1     0.0000    0.0000    DR    ALL  0       0  
M  SED   1 IMPL_H1
M  END
>  <CdId>
90

>  <Mol Weight>
325.77

>  <Formula>
C13H12ClN3O3S

>  <Molecule ChEMBL ID>
CHEMBL3633460

>  <Molecule Name>
PF-06282999

>  <Molecule Max Phase>
1

>  <Molecular Weight>
325.78

>  <#RO5 Violations>
0

>  <AlogP>
1.72

>  <Compound Key>
8; PF-06282999

>  <Standard Type>
IC50

>  <Standard Relation>
'>'

>  <Standard Value>
100000.0

>  <Standard Units>
nM

$$$$

  Mrv2114 03112311372D          

 41 45  0  0  1  0            999 V2000
   -1.4289   -8.2500    0.0000 C   0  0  0  0  0  0  0  0  0  0  0  0
   -2.1434   -7.8375    0.0000 C   0  0  0  0  0  0  0  0  0  0  0  0
   -1.7309   -7.1230    0.0000 C   0  0  0  0  0  0  0  0  0  0  0  0
   -2.5559   -8.5520    0.0000 O   0  0  0  0  0  0  0  0  0  0  0  0
   -2.8579   -7.4250    0.0000 C   0  0  0  0  0  0  0  0  0  0  0  0
   -3.5724   -7.8375    0.0000 C   0  0  0  0  0  0  0  0  0  0  0  0
   -4.2868   -7.4250    0.0000 C   0  0  0  0  0  0  0  0  0  0  0  0
   -4.2868   -6.6000    0.0000 C   0  0  0  0  0  0  0  0  0  0  0  0
   -3.5724   -6.1875    0.0000 C   0  0  0  0  0  0  0  0  0  0  0  0
   -2.8579   -6.6000    0.0000 C   0  0  0  0  0  0  0  0  0  0  0  0
   -2.1434   -6.1875    0.0000 C   0  0  0  0  0  0  0  0  0  0  0  0
   -2.1434   -5.3625    0.0000 C   0  0  0  0  0  0  0  0  0  0  0  0
   -1.4289   -4.9500    0.0000 C   0  0  1  0  0  0  0  0  0  0  0  0
   -0.7145   -5.3625    0.0000 S   0  0  0  0  0  0  0  0  0  0  0  0
    0.0000   -4.9500    0.0000 C   0  0  0  0  0  0  0  0  0  0  0  0
    0.7145   -5.3625    0.0000 C   0  0  0  0  0  0  0  0  0  0  0  0
    0.4323   -6.1377    0.0000 C   0  0  0  0  0  0  0  0  0  0  0  0
    0.9626   -6.7697    0.0000 C   0  0  0  0  0  0  0  0  0  0  0  0
    1.7751   -6.6265    0.0000 O   0  0  0  0  0  0  0  0  0  0  0  0
    0.6804   -7.5450    0.0000 O   0  0  0  0  0  0  0  0  0  0  0  0
    1.2448   -4.7305    0.0000 C   0  0  0  0  0  0  0  0  0  0  0  0
    1.5269   -5.5058    0.0000 C   0  0  0  0  0  0  0  0  0  0  0  0
   -1.4289   -4.1250    0.0000 C   0  0  0  0  0  0  0  0  0  0  0  0
   -2.1434   -3.7125    0.0000 C   0  0  0  0  0  0  0  0  0  0  0  0
   -2.1434   -2.8875    0.0000 C   0  0  0  0  0  0  0  0  0  0  0  0
   -1.4289   -2.4750    0.0000 C   0  0  0  0  0  0  0  0  0  0  0  0
   -0.7145   -2.8875    0.0000 C   0  0  0  0  0  0  0  0  0  0  0  0
    0.0000   -2.4750    0.0000 C   0  0  0  0  0  0  0  0  0  0  0  0
    0.0000   -1.6500    0.0000 C   0  0  0  0  0  0  0  0  0  0  0  0
    0.7145   -1.2375    0.0000 C   0  0  0  0  0  0  0  0  0  0  0  0
    0.7145   -0.4125    0.0000 C   0  0  0  0  0  0  0  0  0  0  0  0
    1.4289    0.0000    0.0000 C   0  0  0  0  0  0  0  0  0  0  0  0
    2.1434   -0.4125    0.0000 C   0  0  0  0  0  0  0  0  0  0  0  0
    2.8579    0.0000    0.0000 C   0  0  0  0  0  0  0  0  0  0  0  0
    3.5724   -0.4125    0.0000 C   0  0  0  0  0  0  0  0  0  0  0  0
    3.5724   -1.2375    0.0000 C   0  0  0  0  0  0  0  0  0  0  0  0
    4.2868   -1.6500    0.0000 Cl  0  0  0  0  0  0  0  0  0  0  0  0
    2.8579   -1.6500    0.0000 C   0  0  0  0  0  0  0  0  0  0  0  0
    2.1434   -1.2375    0.0000 C   0  0  0  0  0  0  0  0  0  0  0  0
    1.4289   -1.6500    0.0000 N   0  0  0  0  0  0  0  0  0  0  0  0
   -0.7145   -3.7125    0.0000 C   0  0  0  0  0  0  0  0  0  0  0  0
  1  2  1  0  0  0  0
  2  3  1  0  0  0  0
  2  4  1  0  0  0  0
  2  5  1  0  0  0  0
  5  6  4  0  0  0  0
  6  7  4  0  0  0  0
  7  8  4  0  0  0  0
  8  9  4  0  0  0  0
  9 10  4  0  0  0  0
  5 10  4  0  0  0  0
 10 11  1  0  0  0  0
 11 12  1  0  0  0  0
 13 12  1  0  0  0  0
 13 14  1  6  0  0  0
 14 15  1  0  0  0  0
 15 16  1  0  0  0  0
 16 17  1  0  0  0  0
 17 18  1  0  0  0  0
 18 19  2  0  0  0  0
 18 20  1  0  0  0  0
 16 21  1  0  0  0  0
 21 22  1  0  0  0  0
 16 22  1  0  0  0  0
 13 23  1  0  0  0  0
 23 24  4  0  0  0  0
 24 25  4  0  0  0  0
 25 26  4  0  0  0  0
 26 27  4  0  0  0  0
 27 28  1  0  0  0  0
 28 29  2  0  0  0  0
 29 30  1  0  0  0  0
 30 31  4  0  0  0  0
 31 32  4  0  0  0  0
 32 33  4  0  0  0  0
 33 34  4  0  0  0  0
 34 35  4  0  0  0  0
 35 36  4  0  0  0  0
 36 37  1  0  0  0  0
 36 38  4  0  0  0  0
 38 39  4  0  0  0  0
 33 39  4  0  0  0  0
 39 40  4  0  0  0  0
 30 40  4  0  0  0  0
 27 41  4  0  0  0  0
 23 41  4  0  0  0  0
M  END
>  <CdId>
91

>  <Mol Weight>
586.19

>  <Formula>
C35H36ClNO3S

>  <Molecule ChEMBL ID>
CHEMBL787

>  <Molecule Name>
MONTELUKAST

>  <Molecule Max Phase>
4

>  <Molecular Weight>
586.2

>  <#RO5 Violations>
2

>  <AlogP>
8.95

>  <Compound Key>
Montelukast

>  <Standard Type>
IC50

>  <Standard Relation>
'='

>  <Standard Value>
1000.0

>  <Standard Units>
nM

$$$$

  Mrv2114 03112311372D          

 36 41  0  0  1  0            999 V2000
    6.2466    1.4154    0.0000 C   0  0  0  0  0  0  0  0  0  0  0  0
    6.2466    0.5904    0.0000 O   0  0  0  0  0  0  0  0  0  0  0  0
    5.5322    0.1779    0.0000 C   0  0  0  0  0  0  0  0  0  0  0  0
    5.5322   -0.6471    0.0000 C   0  0  0  0  0  0  0  0  0  0  0  0
    4.8177   -1.0596    0.0000 C   0  0  0  0  0  0  0  0  0  0  0  0
    4.1032   -0.6471    0.0000 C   0  0  0  0  0  0  0  0  0  0  0  0
    3.3186   -0.9020    0.0000 C   0  0  0  0  0  0  0  0  0  0  0  0
    3.0637   -1.6867    0.0000 N   0  0  0  0  0  0  0  0  0  0  0  0
    3.5486   -2.3541    0.0000 C   0  0  0  0  0  0  0  0  0  0  0  0
    4.3736   -2.3541    0.0000 O   0  0  0  0  0  0  0  0  0  0  0  0
    3.0637   -3.0215    0.0000 N   0  0  0  0  0  0  0  0  0  0  0  0
    3.3186   -3.8062    0.0000 C   0  0  0  0  0  0  0  0  0  0  0  0
    4.1256   -3.9777    0.0000 C   0  0  0  0  0  0  0  0  0  0  0  0
    4.6776   -3.3646    0.0000 C   0  0  0  0  0  0  0  0  0  0  0  0
    5.4846   -3.5361    0.0000 C   0  0  0  0  0  0  0  0  0  0  0  0
    5.7395   -4.3207    0.0000 C   0  0  0  0  0  0  0  0  0  0  0  0
    5.1875   -4.9338    0.0000 C   0  0  0  0  0  0  0  0  0  0  0  0
    5.4424   -5.7185    0.0000 C   0  0  1  0  0  0  0  0  0  0  0  0
    4.6354   -5.8900    0.0000 C   0  0  0  0  0  0  0  0  0  0  0  0
    6.1961   -5.3829    0.0000 O   0  0  0  0  0  0  0  0  0  0  0  0
    6.7481   -5.9960    0.0000 C   0  0  0  0  0  0  0  0  0  0  0  0
    7.5686   -5.9098    0.0000 O   0  0  0  0  0  0  0  0  0  0  0  0
    6.3356   -6.7105    0.0000 N   0  0  0  0  0  0  0  0  0  0  0  0
    5.5287   -6.5389    0.0000 C   0  0  0  0  0  0  0  0  0  0  0  0
    4.9156   -7.0910    0.0000 O   0  0  0  0  0  0  0  0  0  0  0  0
    4.3805   -4.7623    0.0000 C   0  0  0  0  0  0  0  0  0  0  0  0
    2.2790   -2.7666    0.0000 C   0  0  0  0  0  0  0  0  0  0  0  0
    1.5646   -3.1791    0.0000 C   0  0  0  0  0  0  0  0  0  0  0  0
    0.8501   -2.7666    0.0000 C   0  0  0  0  0  0  0  0  0  0  0  0
    0.8501   -1.9416    0.0000 C   0  0  0  0  0  0  0  0  0  0  0  0
    1.5646   -1.5291    0.0000 C   0  0  0  0  0  0  0  0  0  0  0  0
    2.2790   -1.9416    0.0000 C   0  0  0  0  0  0  0  0  0  0  0  0
    2.8337   -0.2346    0.0000 N   0  0  0  0  0  0  0  0  0  0  0  0
    3.3186    0.4328    0.0000 O   0  0  0  0  0  0  0  0  0  0  0  0
    4.1032    0.1779    0.0000 C   0  0  0  0  0  0  0  0  0  0  0  0
    4.8177    0.5904    0.0000 C   0  0  0  0  0  0  0  0  0  0  0  0
  1  2  1  0  0  0  0
  2  3  1  0  0  0  0
  3  4  4  0  0  0  0
  4  5  4  0  0  0  0
  5  6  4  0  0  0  0
  6  7  4  0  0  0  0
  7  8  1  0  0  0  0
  8  9  4  0  0  0  0
  9 10  2  0  0  0  0
  9 11  4  0  0  0  0
 11 12  1  0  0  0  0
 12 13  1  0  0  0  0
 13 14  4  0  0  0  0
 14 15  4  0  0  0  0
 15 16  4  0  0  0  0
 16 17  4  0  0  0  0
 18 17  1  1  0  0  0
 18 19  1  6  0  0  0
 18 20  1  0  0  0  0
 20 21  1  0  0  0  0
 21 22  2  0  0  0  0
 21 23  1  0  0  0  0
 23 24  1  0  0  0  0
 18 24  1  0  0  0  0
 24 25  2  0  0  0  0
 17 26  4  0  0  0  0
 13 26  4  0  0  0  0
 11 27  4  0  0  0  0
 27 28  4  0  0  0  0
 28 29  4  0  0  0  0
 29 30  4  0  0  0  0
 30 31  4  0  0  0  0
 31 32  4  0  0  0  0
 27 32  4  0  0  0  0
  8 32  4  0  0  0  0
  7 33  4  0  0  0  0
 33 34  4  0  0  0  0
 34 35  4  0  0  0  0
  6 35  4  0  0  0  0
 35 36  4  0  0  0  0
  3 36  4  0  0  0  0
M  END
>  <CdId>
92

>  <Mol Weight>
484.468

>  <Formula>
C26H20N4O6

>  <Molecule ChEMBL ID>
CHEMBL1947144

>  <Molecule Max Phase>
None

>  <Molecular Weight>
484.47

>  <#RO5 Violations>
0

>  <AlogP>
3.47

>  <Compound Key>
51

>  <Standard Type>
IC50

>  <Standard Relation>
'='

>  <Standard Value>
10000.0

>  <Standard Units>
nM

$$$$

  Mrv2114 03112311372D          

 44 47  0  0  1  0            999 V2000
    1.1085   -4.4732    0.0000 C   0  0  0  0  0  0  0  0  0  0  0  0
    0.3670   -4.1116    0.0000 C   0  0  0  0  0  0  0  0  0  0  0  0
   -0.3170   -4.5729    0.0000 C   0  0  2  0  0  0  0  0  0  0  0  0
   -0.6525   -3.8192    0.0000 C   0  0  0  0  0  0  0  0  0  0  0  0
   -1.4730   -3.7330    0.0000 O   0  0  0  0  0  0  0  0  0  0  0  0
   -0.1676   -3.1518    0.0000 N   0  0  0  0  0  0  0  0  0  0  0  0
    0.6574   -3.1518    0.0000 C   0  0  0  0  0  0  0  0  0  0  0  0
    0.9123   -2.3672    0.0000 C   0  0  0  0  0  0  0  0  0  0  0  0
    0.2449   -1.8822    0.0000 C   0  0  2  0  0  0  0  0  0  0  0  0
    0.7969   -1.2691    0.0000 C   0  0  0  0  0  0  0  0  0  0  0  0
    0.5420   -0.4845    0.0000 C   0  0  0  0  0  0  0  0  0  0  0  0
    1.0940    0.1286    0.0000 C   0  0  0  0  0  0  0  0  0  0  0  0
    1.9010   -0.0430    0.0000 C   0  0  0  0  0  0  0  0  0  0  0  0
    2.4530    0.5701    0.0000 C   0  0  0  0  0  0  0  0  0  0  0  0
    3.0050    1.1832    0.0000 F   0  0  0  0  0  0  0  0  0  0  0  0
    1.8399    1.1222    0.0000 C   0  0  0  0  0  0  0  0  0  0  0  0
    1.2268    1.6742    0.0000 F   0  0  0  0  0  0  0  0  0  0  0  0
    1.2879    0.5091    0.0000 F   0  0  0  0  0  0  0  0  0  0  0  0
    2.3920    1.7353    0.0000 F   0  0  0  0  0  0  0  0  0  0  0  0
    3.0661    0.0181    0.0000 C   0  0  0  0  0  0  0  0  0  0  0  0
    3.6792   -0.5339    0.0000 F   0  0  0  0  0  0  0  0  0  0  0  0
    2.5141   -0.5950    0.0000 F   0  0  0  0  0  0  0  0  0  0  0  0
    3.6181    0.6312    0.0000 F   0  0  0  0  0  0  0  0  0  0  0  0
    2.1559   -0.8276    0.0000 C   0  0  0  0  0  0  0  0  0  0  0  0
    1.6039   -1.4407    0.0000 C   0  0  0  0  0  0  0  0  0  0  0  0
   -0.3071   -1.2691    0.0000 S   0  0  0  0  0  0  0  0  0  0  0  0
   -0.9202   -1.8212    0.0000 O   0  0  0  0  0  0  0  0  0  0  0  0
    0.3059   -0.7171    0.0000 O   0  0  0  0  0  0  0  0  0  0  0  0
   -0.8592   -0.6561    0.0000 C   0  0  0  0  0  0  0  0  0  0  0  0
   -1.6662   -0.8276    0.0000 C   0  0  0  0  0  0  0  0  0  0  0  0
   -2.2182   -0.2145    0.0000 C   0  0  0  0  0  0  0  0  0  0  0  0
   -1.9632    0.5701    0.0000 C   0  0  0  0  0  0  0  0  0  0  0  0
   -2.5153    1.1832    0.0000 F   0  0  0  0  0  0  0  0  0  0  0  0
   -1.1563    0.7417    0.0000 C   0  0  0  0  0  0  0  0  0  0  0  0
   -0.6042    0.1286    0.0000 C   0  0  0  0  0  0  0  0  0  0  0  0
   -0.4226   -2.3672    0.0000 C   0  0  0  0  0  0  0  0  0  0  0  0
    0.2561   -5.1664    0.0000 C   0  0  0  0  0  0  0  0  0  0  0  0
    0.0287   -5.9594    0.0000 C   0  0  0  0  0  0  0  0  0  0  0  0
   -0.7718   -6.1590    0.0000 C   0  0  2  0  0  0  0  0  0  0  0  0
   -0.9992   -6.9520    0.0000 C   0  0  0  0  0  0  0  0  0  0  0  0
   -0.4261   -7.5455    0.0000 O   0  0  0  0  0  0  0  0  0  0  0  0
   -1.7997   -7.1516    0.0000 O   0  0  0  0  0  0  0  0  0  0  0  0
   -1.3449   -5.5655    0.0000 C   0  0  0  0  0  0  0  0  0  0  0  0
   -1.1175   -4.7725    0.0000 C   0  0  0  0  0  0  0  0  0  0  0  0
  1  2  1  0  0  0  0
  3  2  1  6  0  0  0
  3  4  1  1  0  0  0
  4  5  2  0  0  0  0
  4  6  1  0  0  0  0
  6  7  1  0  0  0  0
  7  8  1  0  0  0  0
  9  8  1  0  0  0  0
  9 10  1  6  0  0  0
 10 11  4  0  0  0  0
 11 12  4  0  0  0  0
 12 13  4  0  0  0  0
 13 14  1  0  0  0  0
 14 15  1  0  0  0  0
 14 16  1  0  0  0  0
 16 17  1  0  0  0  0
 16 18  1  0  0  0  0
 16 19  1  0  0  0  0
 14 20  1  0  0  0  0
 20 21  1  0  0  0  0
 20 22  1  0  0  0  0
 20 23  1  0  0  0  0
 13 24  4  0  0  0  0
 24 25  4  0  0  0  0
 10 25  4  0  0  0  0
  9 26  1  1  0  0  0
 26 27  2  0  0  0  0
 26 28  2  0  0  0  0
 26 29  1  0  0  0  0
 29 30  4  0  0  0  0
 30 31  4  0  0  0  0
 31 32  4  0  0  0  0
 32 33  1  0  0  0  0
 32 34  4  0  0  0  0
 34 35  4  0  0  0  0
 29 35  4  0  0  0  0
  9 36  1  0  0  0  0
  6 36  1  0  0  0  0
  3 37  1  0  0  0  0
 37 38  1  0  0  0  0
 39 38  1  0  0  0  0
 39 40  1  6  0  0  0
 40 41  2  0  0  0  0
 40 42  1  0  0  0  0
 39 43  1  0  0  0  0
 43 44  1  0  0  0  0
  3 44  1  0  0  0  0
M  END
>  <CdId>
93

>  <Mol Weight>
655.6

>  <Formula>
C29H29F8NO5S

>  <Molecule ChEMBL ID>
CHEMBL3965066

>  <Molecule Max Phase>
None

>  <Molecular Weight>
655.6

>  <#RO5 Violations>
2

>  <AlogP>
6.69

>  <Compound Key>
7

>  <Standard Type>
IC50

>  <Standard Relation>
'>'

>  <Standard Value>
10000.0

>  <Standard Units>
nM

$$$$

  Mrv2114 03112311372D          

 28 30  0  0  0  0            999 V2000
   -1.0778   -2.7856    0.0000 C   0  0  0  0  0  0  0  0  0  0  0  0
   -0.9063   -3.5926    0.0000 C   0  0  0  0  0  0  0  0  0  0  0  0
   -0.1526   -3.9282    0.0000 C   0  0  0  0  0  0  0  0  0  0  0  0
    0.5619   -3.5157    0.0000 C   0  0  0  0  0  0  0  0  0  0  0  0
    1.2763   -3.9282    0.0000 C   0  0  0  0  0  0  0  0  0  0  0  0
    1.2763   -4.7532    0.0000 C   0  0  0  0  0  0  0  0  0  0  0  0
    1.9908   -3.5157    0.0000 C   0  0  0  0  0  0  0  0  0  0  0  0
    1.9908   -2.6907    0.0000 O   0  0  0  0  0  0  0  0  0  0  0  0
    2.7053   -3.9282    0.0000 N   0  0  0  0  0  0  0  0  0  0  0  0
    3.4197   -3.5157    0.0000 C   0  0  0  0  0  0  0  0  0  0  0  0
    3.4197   -2.6907    0.0000 C   0  0  0  0  0  0  0  0  0  0  0  0
    4.1342   -2.2782    0.0000 C   0  0  0  0  0  0  0  0  0  0  0  0
    4.8487   -2.6907    0.0000 C   0  0  0  0  0  0  0  0  0  0  0  0
    4.8487   -3.5157    0.0000 C   0  0  0  0  0  0  0  0  0  0  0  0
    4.1342   -3.9282    0.0000 C   0  0  0  0  0  0  0  0  0  0  0  0
    4.1342   -4.7532    0.0000 C   0  0  0  0  0  0  0  0  0  0  0  0
    3.4197   -5.1657    0.0000 O   0  0  0  0  0  0  0  0  0  0  0  0
    4.8487   -5.1657    0.0000 O   0  0  0  0  0  0  0  0  0  0  0  0
   -0.2388   -4.7486    0.0000 C   0  0  0  0  0  0  0  0  0  0  0  0
   -1.0458   -4.9202    0.0000 N   0  0  0  0  0  0  0  0  0  0  0  0
   -1.4583   -4.2057    0.0000 N   0  0  0  0  0  0  0  0  0  0  0  0
   -2.2788   -4.1195    0.0000 C   0  0  0  0  0  0  0  0  0  0  0  0
   -2.7637   -4.7869    0.0000 C   0  0  0  0  0  0  0  0  0  0  0  0
   -3.5842   -4.7007    0.0000 C   0  0  0  0  0  0  0  0  0  0  0  0
   -3.9198   -3.9470    0.0000 C   0  0  0  0  0  0  0  0  0  0  0  0
   -4.7402   -3.8608    0.0000 O   0  0  0  0  0  0  0  0  0  0  0  0
   -3.4348   -3.2795    0.0000 C   0  0  0  0  0  0  0  0  0  0  0  0
   -2.6144   -3.3658    0.0000 C   0  0  0  0  0  0  0  0  0  0  0  0
  1  2  1  0  0  0  0
  2  3  4  0  0  0  0
  3  4  1  0  0  0  0
  4  5  1  0  0  0  0
  5  6  1  0  0  0  0
  5  7  1  0  0  0  0
  7  8  2  0  0  0  0
  7  9  1  0  0  0  0
  9 10  1  0  0  0  0
 10 11  4  0  0  0  0
 11 12  4  0  0  0  0
 12 13  4  0  0  0  0
 13 14  4  0  0  0  0
 14 15  4  0  0  0  0
 10 15  4  0  0  0  0
 15 16  1  0  0  0  0
 16 17  2  0  0  0  0
 16 18  1  0  0  0  0
  3 19  4  0  0  0  0
 19 20  4  0  0  0  0
 20 21  4  0  0  0  0
  2 21  4  0  0  0  0
 21 22  1  0  0  0  0
 22 23  4  0  0  0  0
 23 24  4  0  0  0  0
 24 25  4  0  0  0  0
 25 26  1  0  0  0  0
 25 27  4  0  0  0  0
 27 28  4  0  0  0  0
 22 28  4  0  0  0  0
M  END
>  <CdId>
94

>  <Mol Weight>
379.416

>  <Formula>
C21H21N3O4

>  <Molecule ChEMBL ID>
CHEMBL1086104

>  <Molecule Max Phase>
None

>  <Molecular Weight>
379.42

>  <#RO5 Violations>
0

>  <AlogP>
3.4

>  <Compound Key>
4b

>  <Standard Type>
IC50

>  <Standard Relation>
'='

>  <Standard Value>
34000.0

>  <Standard Units>
nM

$$$$

  Mrv2114 03112311372D          

 28 30  0  0  0  0            999 V2000
    0.0000   -2.4750    0.0000 O   0  0  0  0  0  0  0  0  0  0  0  0
    0.0000   -1.6500    0.0000 C   0  0  0  0  0  0  0  0  0  0  0  0
   -0.7145   -1.2375    0.0000 C   0  0  0  0  0  0  0  0  0  0  0  0
   -1.4289   -1.6500    0.0000 C   0  0  0  0  0  0  0  0  0  0  0  0
   -1.4289   -2.4750    0.0000 C   0  0  0  0  0  0  0  0  0  0  0  0
   -0.7145   -2.8875    0.0000 C   0  0  0  0  0  0  0  0  0  0  0  0
   -0.7145   -3.7125    0.0000 C   0  0  0  0  0  0  0  0  0  0  0  0
   -1.4289   -4.1250    0.0000 C   0  0  0  0  0  0  0  0  0  0  0  0
   -1.4289   -4.9500    0.0000 C   0  0  0  0  0  0  0  0  0  0  0  0
   -0.7145   -5.3625    0.0000 C   0  0  0  0  0  0  0  0  0  0  0  0
   -0.7145   -6.1875    0.0000 C   0  0  0  0  0  0  0  0  0  0  0  0
   -1.4289   -6.6000    0.0000 C   0  0  0  0  0  0  0  0  0  0  0  0
   -1.4289   -7.4250    0.0000 O   0  0  0  0  0  0  0  0  0  0  0  0
   -2.1434   -6.1875    0.0000 C   0  0  0  0  0  0  0  0  0  0  0  0
   -2.1434   -5.3625    0.0000 C   0  0  0  0  0  0  0  0  0  0  0  0
   -2.8579   -4.9500    0.0000 Cl  0  0  0  0  0  0  0  0  0  0  0  0
   -2.1434   -3.7125    0.0000 C   0  0  0  0  0  0  0  0  0  0  0  0
   -2.1434   -2.8875    0.0000 C   0  0  0  0  0  0  0  0  0  0  0  0
    0.7145   -1.2375    0.0000 N   0  0  0  0  0  0  0  0  0  0  0  0
    0.7145   -0.4125    0.0000 C   0  0  0  0  0  0  0  0  0  0  0  0
    0.0000    0.0000    0.0000 C   0  0  0  0  0  0  0  0  0  0  0  0
    0.0000    0.8250    0.0000 C   0  0  0  0  0  0  0  0  0  0  0  0
    0.7145    1.2375    0.0000 C   0  0  0  0  0  0  0  0  0  0  0  0
    1.4289    0.8250    0.0000 C   0  0  0  0  0  0  0  0  0  0  0  0
    1.4289    0.0000    0.0000 C   0  0  0  0  0  0  0  0  0  0  0  0
    2.1434   -0.4125    0.0000 C   0  0  0  0  0  0  0  0  0  0  0  0
    2.1434   -1.2375    0.0000 O   0  0  0  0  0  0  0  0  0  0  0  0
    2.8579    0.0000    0.0000 O   0  0  0  0  0  0  0  0  0  0  0  0
  1  2  2  0  0  0  0
  2  3  1  0  0  0  0
  3  4  1  0  0  0  0
  4  5  1  0  0  0  0
  5  6  4  0  0  0  0
  6  7  4  0  0  0  0
  7  8  4  0  0  0  0
  8  9  1  0  0  0  0
  9 10  4  0  0  0  0
 10 11  4  0  0  0  0
 11 12  4  0  0  0  0
 12 13  1  0  0  0  0
 12 14  4  0  0  0  0
 14 15  4  0  0  0  0
  9 15  4  0  0  0  0
 15 16  1  0  0  0  0
  8 17  4  0  0  0  0
 17 18  4  0  0  0  0
  5 18  4  0  0  0  0
  2 19  1  0  0  0  0
 19 20  1  0  0  0  0
 20 21  4  0  0  0  0
 21 22  4  0  0  0  0
 22 23  4  0  0  0  0
 23 24  4  0  0  0  0
 24 25  4  0  0  0  0
 20 25  4  0  0  0  0
 25 26  1  0  0  0  0
 26 27  2  0  0  0  0
 26 28  1  0  0  0  0
M  END
>  <CdId>
95

>  <Mol Weight>
395.84

>  <Formula>
C22H18ClNO4

>  <Molecule ChEMBL ID>
CHEMBL235256

>  <Molecule Max Phase>
None

>  <Molecular Weight>
395.84

>  <#RO5 Violations>
0

>  <AlogP>
4.98

>  <Compound Key>
1b

>  <Standard Type>
IC50

>  <Standard Relation>
'<'

>  <Standard Value>
400.0

>  <Standard Units>
nM

$$$$

  Mrv2114 03112311372D          

 32 35  0  0  1  0            999 V2000
    6.2102    1.1104    0.0000 C   0  0  0  0  0  0  0  0  0  0  0  0
    5.4957    1.5229    0.0000 C   0  0  0  0  0  0  0  0  0  0  0  0
    4.7812    1.1104    0.0000 S   0  0  0  0  0  0  0  0  0  0  0  0
    4.3687    1.8249    0.0000 O   0  0  0  0  0  0  0  0  0  0  0  0
    5.1937    0.3960    0.0000 O   0  0  0  0  0  0  0  0  0  0  0  0
    4.0668    0.6979    0.0000 N   0  0  0  0  0  0  0  0  0  0  0  0
    3.3523    1.1104    0.0000 C   0  0  2  0  0  0  0  0  0  0  0  0
    3.3523    1.9354    0.0000 C   0  0  0  0  0  0  0  0  0  0  0  0
    2.6378    2.3479    0.0000 C   0  0  2  0  0  0  0  0  0  0  0  0
    2.6378    3.1729    0.0000 C   0  0  0  0  0  0  0  0  0  0  0  0
    2.8441    1.5229    0.0000 O   0  0  0  0  0  0  0  0  0  0  0  0
    2.6378    0.6979    0.0000 C   0  0  1  0  0  0  0  0  0  0  0  0
    2.6378   -0.1271    0.0000 C   0  0  0  0  0  0  0  0  0  0  0  0
    1.9233    1.1104    0.0000 C   0  0  2  0  0  0  0  0  0  0  0  0
    1.1387    0.8555    0.0000 C   0  0  0  0  0  0  0  0  0  0  0  0
    0.8838    0.0709    0.0000 O   0  0  0  0  0  0  0  0  0  0  0  0
    0.6538    1.5229    0.0000 N   0  0  0  0  0  0  0  0  0  0  0  0
   -0.1712    1.5229    0.0000 C   0  0  0  0  0  0  0  0  0  0  0  0
   -0.5837    0.8085    0.0000 C   0  0  0  0  0  0  0  0  0  0  0  0
   -1.4087    0.8085    0.0000 C   0  0  0  0  0  0  0  0  0  0  0  0
   -1.8212    1.5229    0.0000 C   0  0  0  0  0  0  0  0  0  0  0  0
   -2.6462    1.5229    0.0000 C   0  0  0  0  0  0  0  0  0  0  0  0
   -3.4712    1.5229    0.0000 N   0  0  0  0  0  0  0  0  0  0  0  0
   -1.4087    2.2374    0.0000 C   0  0  0  0  0  0  0  0  0  0  0  0
   -1.8212    2.9519    0.0000 C   0  0  0  0  0  0  0  0  0  0  0  0
   -2.2337    3.6664    0.0000 F   0  0  0  0  0  0  0  0  0  0  0  0
   -1.1067    3.3644    0.0000 F   0  0  0  0  0  0  0  0  0  0  0  0
   -2.5357    2.5394    0.0000 F   0  0  0  0  0  0  0  0  0  0  0  0
   -0.5837    2.2374    0.0000 C   0  0  0  0  0  0  0  0  0  0  0  0
    1.1387    2.1904    0.0000 C   0  0  0  0  0  0  0  0  0  0  0  0
    0.8838    2.9750    0.0000 O   0  0  0  0  0  0  0  0  0  0  0  0
    1.9233    1.9354    0.0000 C   0  0  2  0  0  0  0  0  0  0  0  0
  1  2  1  0  0  0  0
  2  3  1  0  0  0  0
  3  4  2  0  0  0  0
  3  5  2  0  0  0  0
  3  6  1  0  0  0  0
  7  6  1  1  0  0  0
  7  8  1  0  0  0  0
  9  8  1  0  0  0  0
  9 10  1  1  0  0  0
  9 11  1  0  0  0  0
 12 11  1  0  0  0  0
 12  7  1  0  0  0  0
 12 13  1  6  0  0  0
 12 14  1  0  0  0  0
 14 15  1  6  0  0  0
 15 16  2  0  0  0  0
 15 17  1  0  0  0  0
 17 18  1  0  0  0  0
 18 19  4  0  0  0  0
 19 20  4  0  0  0  0
 20 21  4  0  0  0  0
 21 22  1  0  0  0  0
 22 23  3  0  0  0  0
 21 24  4  0  0  0  0
 24 25  1  0  0  0  0
 25 26  1  0  0  0  0
 25 27  1  0  0  0  0
 25 28  1  0  0  0  0
 24 29  4  0  0  0  0
 18 29  4  0  0  0  0
 17 30  1  0  0  0  0
 30 31  2  0  0  0  0
 32 30  1  6  0  0  0
 14 32  1  0  0  0  0
 32  9  1  0  0  0  0
M  END
>  <CdId>
96

>  <Mol Weight>
471.45

>  <Formula>
C20H20F3N3O5S

>  <Molecule ChEMBL ID>
CHEMBL3623127

>  <Molecule Max Phase>
None

>  <Molecular Weight>
471.46

>  <#RO5 Violations>
0

>  <AlogP>
1.94

>  <Compound Key>
23, BMS-641988

>  <Standard Type>
IC50

>  <Standard Relation>
'>'

>  <Standard Value>
40000.0

>  <Standard Units>
nM

$$$$

  Mrv2114 03112311372D          

 28 30  0  0  0  0            999 V2000
    0.0000   -2.4750    0.0000 O   0  0  0  0  0  0  0  0  0  0  0  0
    0.0000   -1.6500    0.0000 C   0  0  0  0  0  0  0  0  0  0  0  0
   -0.7145   -1.2375    0.0000 C   0  0  0  0  0  0  0  0  0  0  0  0
   -1.4289   -1.6500    0.0000 C   0  0  0  0  0  0  0  0  0  0  0  0
   -1.4289   -2.4750    0.0000 C   0  0  0  0  0  0  0  0  0  0  0  0
   -0.7145   -2.8875    0.0000 C   0  0  0  0  0  0  0  0  0  0  0  0
   -0.7145   -3.7125    0.0000 C   0  0  0  0  0  0  0  0  0  0  0  0
   -1.4289   -4.1250    0.0000 C   0  0  0  0  0  0  0  0  0  0  0  0
   -1.4289   -4.9500    0.0000 C   0  0  0  0  0  0  0  0  0  0  0  0
   -0.7145   -5.3625    0.0000 C   0  0  0  0  0  0  0  0  0  0  0  0
   -0.7145   -6.1875    0.0000 C   0  0  0  0  0  0  0  0  0  0  0  0
   -1.4289   -6.6000    0.0000 C   0  0  0  0  0  0  0  0  0  0  0  0
   -1.4289   -7.4250    0.0000 O   0  0  0  0  0  0  0  0  0  0  0  0
   -2.1434   -6.1875    0.0000 C   0  0  0  0  0  0  0  0  0  0  0  0
   -2.1434   -5.3625    0.0000 C   0  0  0  0  0  0  0  0  0  0  0  0
   -2.8579   -4.9500    0.0000 Cl  0  0  0  0  0  0  0  0  0  0  0  0
   -2.1434   -3.7125    0.0000 C   0  0  0  0  0  0  0  0  0  0  0  0
   -2.1434   -2.8875    0.0000 C   0  0  0  0  0  0  0  0  0  0  0  0
    0.7145   -1.2375    0.0000 N   0  0  0  0  0  0  0  0  0  0  0  0
    0.7145   -0.4125    0.0000 C   0  0  0  0  0  0  0  0  0  0  0  0
    0.0000    0.0000    0.0000 C   0  0  0  0  0  0  0  0  0  0  0  0
    0.0000    0.8250    0.0000 C   0  0  0  0  0  0  0  0  0  0  0  0
    0.7145    1.2375    0.0000 C   0  0  0  0  0  0  0  0  0  0  0  0
    1.4289    0.8250    0.0000 C   0  0  0  0  0  0  0  0  0  0  0  0
    1.4289    0.0000    0.0000 C   0  0  0  0  0  0  0  0  0  0  0  0
    2.1434   -0.4125    0.0000 C   0  0  0  0  0  0  0  0  0  0  0  0
    2.1434   -1.2375    0.0000 O   0  0  0  0  0  0  0  0  0  0  0  0
    2.8579    0.0000    0.0000 O   0  0  0  0  0  0  0  0  0  0  0  0
  1  2  2  0  0  0  0
  2  3  1  0  0  0  0
  3  4  1  0  0  0  0
  4  5  1  0  0  0  0
  5  6  4  0  0  0  0
  6  7  4  0  0  0  0
  7  8  4  0  0  0  0
  8  9  1  0  0  0  0
  9 10  4  0  0  0  0
 10 11  4  0  0  0  0
 11 12  4  0  0  0  0
 12 13  1  0  0  0  0
 12 14  4  0  0  0  0
 14 15  4  0  0  0  0
  9 15  4  0  0  0  0
 15 16  1  0  0  0  0
  8 17  4  0  0  0  0
 17 18  4  0  0  0  0
  5 18  4  0  0  0  0
  2 19  1  0  0  0  0
 19 20  1  0  0  0  0
 20 21  4  0  0  0  0
 21 22  4  0  0  0  0
 22 23  4  0  0  0  0
 23 24  4  0  0  0  0
 24 25  4  0  0  0  0
 20 25  4  0  0  0  0
 25 26  1  0  0  0  0
 26 27  2  0  0  0  0
 26 28  1  0  0  0  0
M  END
>  <CdId>
97

>  <Mol Weight>
395.84

>  <Formula>
C22H18ClNO4

>  <Molecule ChEMBL ID>
CHEMBL235256

>  <Molecule Max Phase>
None

>  <Molecular Weight>
395.84

>  <#RO5 Violations>
0

>  <AlogP>
4.98

>  <Compound Key>
1d

>  <Standard Type>
IC50

>  <Standard Relation>
'<'

>  <Standard Value>
400.0

>  <Standard Units>
nM

$$$$

  Mrv2114 03112311372D          

 27 29  0  0  0  0            999 V2000
   -2.7792   -4.5927    0.0000 C   0  0  0  0  0  0  0  0  0  0  0  0
   -1.9690   -4.7486    0.0000 C   0  0  0  0  0  0  0  0  0  0  0  0
   -1.6990   -5.5282    0.0000 C   0  0  0  0  0  0  0  0  0  0  0  0
   -1.4289   -4.1250    0.0000 C   0  0  0  0  0  0  0  0  0  0  0  0
   -0.6188   -4.2809    0.0000 O   0  0  0  0  0  0  0  0  0  0  0  0
   -0.0787   -3.6573    0.0000 C   0  0  0  0  0  0  0  0  0  0  0  0
    0.7314   -3.8132    0.0000 C   0  0  0  0  0  0  0  0  0  0  0  0
    1.2715   -3.1895    0.0000 C   0  0  0  0  0  0  0  0  0  0  0  0
    2.0816   -3.3454    0.0000 N   0  0  0  0  0  0  0  0  0  0  0  0
    2.3517   -4.1250    0.0000 C   0  0  0  0  0  0  0  0  0  0  0  0
    3.1618   -4.2809    0.0000 C   0  0  0  0  0  0  0  0  0  0  0  0
    3.7019   -3.6573    0.0000 C   0  0  0  0  0  0  0  0  0  0  0  0
    4.5120   -3.8132    0.0000 C   0  0  0  0  0  0  0  0  0  0  0  0
    4.7821   -4.5927    0.0000 C   0  0  0  0  0  0  0  0  0  0  0  0
    4.2420   -5.2164    0.0000 C   0  0  0  0  0  0  0  0  0  0  0  0
    3.4319   -5.0605    0.0000 C   0  0  0  0  0  0  0  0  0  0  0  0
    2.6217   -2.7218    0.0000 C   0  0  0  0  0  0  0  0  0  0  0  0
    2.3517   -1.9423    0.0000 C   0  0  0  0  0  0  0  0  0  0  0  0
    2.8918   -1.3186    0.0000 C   0  0  0  0  0  0  0  0  0  0  0  0
    3.7019   -1.4745    0.0000 C   0  0  0  0  0  0  0  0  0  0  0  0
    3.9720   -2.2541    0.0000 C   0  0  0  0  0  0  0  0  0  0  0  0
    3.4319   -2.8777    0.0000 C   0  0  0  0  0  0  0  0  0  0  0  0
    1.0015   -4.5927    0.0000 N   0  0  0  0  0  0  0  0  0  0  0  0
    1.7909   -4.8325    0.0000 C   0  0  0  0  0  0  0  0  0  0  0  0
    1.8068   -5.6573    0.0000 C   0  0  0  0  0  0  0  0  0  0  0  0
    1.0272   -5.9274    0.0000 C   0  0  0  0  0  0  0  0  0  0  0  0
    0.5295   -5.2694    0.0000 C   0  0  0  0  0  0  0  0  0  0  0  0
  1  2  1  0  0  0  0
  2  3  1  0  0  0  0
  2  4  1  0  0  0  0
  4  5  1  0  0  0  0
  5  6  1  0  0  0  0
  6  7  1  0  0  0  0
  7  8  1  0  0  0  0
  8  9  1  0  0  0  0
  9 10  1  0  0  0  0
 10 11  1  0  0  0  0
 11 12  4  0  0  0  0
 12 13  4  0  0  0  0
 13 14  4  0  0  0  0
 14 15  4  0  0  0  0
 15 16  4  0  0  0  0
 11 16  4  0  0  0  0
  9 17  1  0  0  0  0
 17 18  4  0  0  0  0
 18 19  4  0  0  0  0
 19 20  4  0  0  0  0
 20 21  4  0  0  0  0
 21 22  4  0  0  0  0
 17 22  4  0  0  0  0
  7 23  1  0  0  0  0
 23 24  1  0  0  0  0
 24 25  1  0  0  0  0
 25 26  1  0  0  0  0
 26 27  1  0  0  0  0
 23 27  1  0  0  0  0
M  END
>  <CdId>
98

>  <Mol Weight>
366.549

>  <Formula>
C24H34N2O

>  <Molecule ChEMBL ID>
CHEMBL1008

>  <Molecule Name>
BEPRIDIL

>  <Molecule Max Phase>
4

>  <Molecular Weight>
366.55

>  <#RO5 Violations>
0

>  <AlogP>
4.83

>  <Compound Key>
Bepridil

>  <Standard Type>
IC50

>  <Standard Relation>
'>'

>  <Standard Value>
30000.0

>  <Standard Units>
nM

$$$$

  Mrv2114 03112311372D          

 28 32  0  0  1  0            999 V2000
    0.7145   -2.8875    0.0000 C   0  0  0  0  0  0  0  0  0  0  0  0
    0.0000   -2.4750    0.0000 C   0  0  2  0  0  0  0  0  0  0  0  0
   -0.7145   -2.8875    0.0000 C   0  0  0  0  0  0  0  0  0  0  0  0
   -1.4289   -2.4750    0.0000 O   0  0  0  0  0  0  0  0  0  0  0  0
   -1.4289   -1.6500    0.0000 C   0  0  0  0  0  0  0  0  0  0  0  0
   -0.7145   -1.2375    0.0000 C   0  0  0  0  0  0  0  0  0  0  0  0
    0.0000   -1.6500    0.0000 N   0  0  0  0  0  0  0  0  0  0  0  0
    0.7145   -1.2375    0.0000 C   0  0  0  0  0  0  0  0  0  0  0  0
    0.7145   -0.4125    0.0000 C   0  0  0  0  0  0  0  0  0  0  0  0
    1.4289    0.0000    0.0000 C   0  0  0  0  0  0  0  0  0  0  0  0
    1.4289    0.8250    0.0000 C   0  0  0  0  0  0  0  0  0  0  0  0
    0.7615    1.3099    0.0000 C   0  0  0  0  0  0  0  0  0  0  0  0
    1.0164    2.0945    0.0000 C   0  0  0  0  0  0  0  0  0  0  0  0
    1.8414    2.0945    0.0000 N   0  0  0  0  0  0  0  0  0  0  0  0
    2.0964    1.3099    0.0000 N   0  0  0  0  0  0  0  0  0  0  0  0
    2.8810    1.0550    0.0000 C   0  0  0  0  0  0  0  0  0  0  0  0
    2.1434   -0.4125    0.0000 C   0  0  0  0  0  0  0  0  0  0  0  0
    2.8579    0.0000    0.0000 C   0  0  0  0  0  0  0  0  0  0  0  0
    3.5724   -0.4125    0.0000 C   0  0  0  0  0  0  0  0  0  0  0  0
    3.5724   -1.2375    0.0000 N   0  0  0  0  0  0  0  0  0  0  0  0
    2.8579   -1.6500    0.0000 C   0  0  0  0  0  0  0  0  0  0  0  0
    2.8579   -2.4750    0.0000 C   0  0  0  0  0  0  0  0  0  0  0  0
    3.5253   -2.9599    0.0000 C   0  0  0  0  0  0  0  0  0  0  0  0
    3.2704   -3.7445    0.0000 C   0  0  0  0  0  0  0  0  0  0  0  0
    2.4454   -3.7445    0.0000 N   0  0  0  0  0  0  0  0  0  0  0  0
    2.1904   -2.9599    0.0000 N   0  0  0  0  0  0  0  0  0  0  0  0
    2.1434   -1.2375    0.0000 C   0  0  0  0  0  0  0  0  0  0  0  0
    1.4289   -1.6500    0.0000 N   0  0  0  0  0  0  0  0  0  0  0  0
  2  1  1  6  0  0  0
  2  3  1  0  0  0  0
  3  4  1  0  0  0  0
  4  5  1  0  0  0  0
  5  6  1  0  0  0  0
  6  7  1  0  0  0  0
  2  7  1  0  0  0  0
  7  8  1  0  0  0  0
  8  9  4  0  0  0  0
  9 10  4  0  0  0  0
 10 11  1  0  0  0  0
 11 12  4  0  0  0  0
 12 13  4  0  0  0  0
 13 14  4  0  0  0  0
 14 15  4  0  0  0  0
 11 15  4  0  0  0  0
 15 16  1  0  0  0  0
 10 17  4  0  0  0  0
 17 18  4  0  0  0  0
 18 19  4  0  0  0  0
 19 20  4  0  0  0  0
 20 21  4  0  0  0  0
 21 22  1  0  0  0  0
 22 23  4  0  0  0  0
 23 24  4  0  0  0  0
 24 25  4  0  0  0  0
 25 26  4  0  0  0  0
 22 26  4  0  0  0  0
 21 27  4  0  0  0  0
 17 27  4  0  0  0  0
 27 28  4  0  0  0  0
  8 28  4  0  0  0  0
M  STY  1   1 DAT
M  SAL   1  1  26
M  SDT   1 MRV_IMPLICIT_H                                        
M  SDD   1     0.0000    0.0000    DR    ALL  0       0  
M  SED   1 IMPL_H1
M  END
>  <CdId>
99

>  <Mol Weight>
375.436

>  <Formula>
C20H21N7O

>  <Molecule ChEMBL ID>
CHEMBL4647810

>  <Molecule Name>
ELIMUSERTIB

>  <Molecule Max Phase>
1

>  <Molecular Weight>
375.44

>  <#RO5 Violations>
0

>  <AlogP>
2.65

>  <Compound Key>
BAY-1895344

>  <Standard Type>
IC50

>  <Standard Relation>
'='

>  <Standard Value>
9800.0

>  <Standard Units>
nM

$$$$

  Mrv2114 03112311372D          

 27 29  0  0  0  0            999 V2000
    0.0000   -2.4750    0.0000 O   0  0  0  0  0  0  0  0  0  0  0  0
    0.0000   -1.6500    0.0000 C   0  0  0  0  0  0  0  0  0  0  0  0
   -0.7145   -1.2375    0.0000 C   0  0  0  0  0  0  0  0  0  0  0  0
   -1.4289   -1.6500    0.0000 C   0  0  0  0  0  0  0  0  0  0  0  0
   -1.4289   -2.4750    0.0000 C   0  0  0  0  0  0  0  0  0  0  0  0
   -0.7145   -2.8875    0.0000 C   0  0  0  0  0  0  0  0  0  0  0  0
   -0.7145   -3.7125    0.0000 C   0  0  0  0  0  0  0  0  0  0  0  0
   -1.4289   -4.1250    0.0000 C   0  0  0  0  0  0  0  0  0  0  0  0
   -1.4289   -4.9500    0.0000 C   0  0  0  0  0  0  0  0  0  0  0  0
   -0.7145   -5.3625    0.0000 C   0  0  0  0  0  0  0  0  0  0  0  0
   -0.7145   -6.1875    0.0000 C   0  0  0  0  0  0  0  0  0  0  0  0
   -1.4289   -6.6000    0.0000 C   0  0  0  0  0  0  0  0  0  0  0  0
   -1.4289   -7.4250    0.0000 O   0  0  0  0  0  0  0  0  0  0  0  0
   -2.1434   -6.1875    0.0000 C   0  0  0  0  0  0  0  0  0  0  0  0
   -2.1434   -5.3625    0.0000 N   0  0  0  0  0  0  0  0  0  0  0  0
   -2.1434   -3.7125    0.0000 C   0  0  0  0  0  0  0  0  0  0  0  0
   -2.1434   -2.8875    0.0000 C   0  0  0  0  0  0  0  0  0  0  0  0
    0.7145   -1.2375    0.0000 N   0  0  0  0  0  0  0  0  0  0  0  0
    0.7145   -0.4125    0.0000 C   0  0  0  0  0  0  0  0  0  0  0  0
    0.0000    0.0000    0.0000 C   0  0  0  0  0  0  0  0  0  0  0  0
    0.0000    0.8250    0.0000 C   0  0  0  0  0  0  0  0  0  0  0  0
    0.7145    1.2375    0.0000 C   0  0  0  0  0  0  0  0  0  0  0  0
    1.4289    0.8250    0.0000 C   0  0  0  0  0  0  0  0  0  0  0  0
    1.4289    0.0000    0.0000 C   0  0  0  0  0  0  0  0  0  0  0  0
    2.1434   -0.4125    0.0000 C   0  0  0  0  0  0  0  0  0  0  0  0
    2.1434   -1.2375    0.0000 O   0  0  0  0  0  0  0  0  0  0  0  0
    2.8579    0.0000    0.0000 O   0  0  0  0  0  0  0  0  0  0  0  0
  1  2  2  0  0  0  0
  2  3  1  0  0  0  0
  3  4  1  0  0  0  0
  4  5  1  0  0  0  0
  5  6  4  0  0  0  0
  6  7  4  0  0  0  0
  7  8  4  0  0  0  0
  8  9  1  0  0  0  0
  9 10  4  0  0  0  0
 10 11  4  0  0  0  0
 11 12  4  0  0  0  0
 12 13  1  0  0  0  0
 12 14  4  0  0  0  0
 14 15  4  0  0  0  0
  9 15  4  0  0  0  0
  8 16  4  0  0  0  0
 16 17  4  0  0  0  0
  5 17  4  0  0  0  0
  2 18  1  0  0  0  0
 18 19  1  0  0  0  0
 19 20  4  0  0  0  0
 20 21  4  0  0  0  0
 21 22  4  0  0  0  0
 22 23  4  0  0  0  0
 23 24  4  0  0  0  0
 19 24  4  0  0  0  0
 24 25  1  0  0  0  0
 25 26  2  0  0  0  0
 25 27  1  0  0  0  0
M  END
>  <CdId>
100

>  <Mol Weight>
362.385

>  <Formula>
C21H18N2O4

>  <Molecule ChEMBL ID>
CHEMBL235952

>  <Molecule Max Phase>
None

>  <Molecular Weight>
362.39

>  <#RO5 Violations>
0

>  <AlogP>
3.72

>  <Compound Key>
2b

>  <Standard Type>
IC50

>  <Standard Relation>
'='

>  <Standard Value>
8900.0

>  <Standard Units>
nM

$$$$

  Mrv2114 03112311372D          

 27 29  0  0  0  0            999 V2000
   -1.0778   -2.7856    0.0000 C   0  0  0  0  0  0  0  0  0  0  0  0
   -0.9063   -3.5926    0.0000 C   0  0  0  0  0  0  0  0  0  0  0  0
   -0.1526   -3.9282    0.0000 C   0  0  0  0  0  0  0  0  0  0  0  0
    0.5619   -3.5157    0.0000 C   0  0  0  0  0  0  0  0  0  0  0  0
    1.2763   -3.9282    0.0000 C   0  0  0  0  0  0  0  0  0  0  0  0
    1.9908   -3.5157    0.0000 C   0  0  0  0  0  0  0  0  0  0  0  0
    1.9908   -2.6907    0.0000 O   0  0  0  0  0  0  0  0  0  0  0  0
    2.7053   -3.9282    0.0000 N   0  0  0  0  0  0  0  0  0  0  0  0
    3.4197   -3.5157    0.0000 C   0  0  0  0  0  0  0  0  0  0  0  0
    3.4197   -2.6907    0.0000 C   0  0  0  0  0  0  0  0  0  0  0  0
    4.1342   -2.2782    0.0000 C   0  0  0  0  0  0  0  0  0  0  0  0
    4.8487   -2.6907    0.0000 C   0  0  0  0  0  0  0  0  0  0  0  0
    4.8487   -3.5157    0.0000 C   0  0  0  0  0  0  0  0  0  0  0  0
    4.1342   -3.9282    0.0000 C   0  0  0  0  0  0  0  0  0  0  0  0
    4.1342   -4.7532    0.0000 C   0  0  0  0  0  0  0  0  0  0  0  0
    3.4197   -5.1657    0.0000 O   0  0  0  0  0  0  0  0  0  0  0  0
    4.8487   -5.1657    0.0000 O   0  0  0  0  0  0  0  0  0  0  0  0
   -0.2388   -4.7486    0.0000 C   0  0  0  0  0  0  0  0  0  0  0  0
   -1.0458   -4.9202    0.0000 N   0  0  0  0  0  0  0  0  0  0  0  0
   -1.4583   -4.2057    0.0000 N   0  0  0  0  0  0  0  0  0  0  0  0
   -2.2788   -4.1195    0.0000 C   0  0  0  0  0  0  0  0  0  0  0  0
   -2.7637   -4.7869    0.0000 C   0  0  0  0  0  0  0  0  0  0  0  0
   -3.5842   -4.7007    0.0000 C   0  0  0  0  0  0  0  0  0  0  0  0
   -3.9198   -3.9470    0.0000 C   0  0  0  0  0  0  0  0  0  0  0  0
   -4.7402   -3.8608    0.0000 O   0  0  0  0  0  0  0  0  0  0  0  0
   -3.4348   -3.2795    0.0000 C   0  0  0  0  0  0  0  0  0  0  0  0
   -2.6144   -3.3658    0.0000 C   0  0  0  0  0  0  0  0  0  0  0  0
  1  2  1  0  0  0  0
  2  3  4  0  0  0  0
  3  4  1  0  0  0  0
  4  5  1  0  0  0  0
  5  6  1  0  0  0  0
  6  7  2  0  0  0  0
  6  8  1  0  0  0  0
  8  9  1  0  0  0  0
  9 10  4  0  0  0  0
 10 11  4  0  0  0  0
 11 12  4  0  0  0  0
 12 13  4  0  0  0  0
 13 14  4  0  0  0  0
  9 14  4  0  0  0  0
 14 15  1  0  0  0  0
 15 16  2  0  0  0  0
 15 17  1  0  0  0  0
  3 18  4  0  0  0  0
 18 19  4  0  0  0  0
 19 20  4  0  0  0  0
  2 20  4  0  0  0  0
 20 21  1  0  0  0  0
 21 22  4  0  0  0  0
 22 23  4  0  0  0  0
 23 24  4  0  0  0  0
 24 25  1  0  0  0  0
 24 26  4  0  0  0  0
 26 27  4  0  0  0  0
 21 27  4  0  0  0  0
M  END
>  <CdId>
101

>  <Mol Weight>
365.389

>  <Formula>
C20H19N3O4

>  <Molecule ChEMBL ID>
CHEMBL236163

>  <Molecule Max Phase>
None

>  <Molecular Weight>
365.39

>  <#RO5 Violations>
0

>  <AlogP>
3.16

>  <Compound Key>
4a

>  <Standard Type>
IC50

>  <Standard Relation>
'='

>  <Standard Value>
19000.0

>  <Standard Units>
nM

$$$$

  Mrv2114 03112311372D          

 31 33  0  0  0  0            999 V2000
   -3.5724   -1.2375    0.0000 C   0  0  0  0  0  0  0  0  0  0  0  0
   -4.2868   -1.6500    0.0000 N   0  0  0  0  0  0  0  0  0  0  0  0
   -4.2868   -2.4750    0.0000 C   0  0  0  0  0  0  0  0  0  0  0  0
   -3.5724   -2.8875    0.0000 N   0  0  0  0  0  0  0  0  0  0  0  0
   -3.5724   -3.7125    0.0000 C   0  0  0  0  0  0  0  0  0  0  0  0
   -2.8579   -4.1250    0.0000 C   0  0  0  0  0  0  0  0  0  0  0  0
   -4.2868   -4.1250    0.0000 N   0  0  0  0  0  0  0  0  0  0  0  0
   -5.0013   -3.7125    0.0000 C   0  0  0  0  0  0  0  0  0  0  0  0
   -5.7158   -4.1250    0.0000 N   0  0  0  0  0  0  0  0  0  0  0  0
   -5.7158   -4.9500    0.0000 C   0  0  0  0  0  0  0  0  0  0  0  0
   -6.4302   -5.3625    0.0000 C   0  0  0  0  0  0  0  0  0  0  0  0
   -7.1447   -4.9500    0.0000 C   0  0  0  0  0  0  0  0  0  0  0  0
   -7.8592   -5.3625    0.0000 C   0  0  0  0  0  0  0  0  0  0  0  0
   -7.8592   -6.1875    0.0000 O   0  0  0  0  0  0  0  0  0  0  0  0
   -8.5737   -4.9500    0.0000 N   0  0  0  0  0  0  0  0  0  0  0  0
   -9.2881   -5.3625    0.0000 C   0  0  0  0  0  0  0  0  0  0  0  0
   -9.2881   -6.1875    0.0000 C   0  0  0  0  0  0  0  0  0  0  0  0
   -8.5737   -6.6000    0.0000 C   0  0  0  0  0  0  0  0  0  0  0  0
   -8.5737   -7.4250    0.0000 C   0  0  0  0  0  0  0  0  0  0  0  0
   -9.2881   -7.8375    0.0000 C   0  0  0  0  0  0  0  0  0  0  0  0
   -9.2881   -8.6625    0.0000 Br  0  0  0  0  0  0  0  0  0  0  0  0
  -10.0026   -7.4250    0.0000 C   0  0  0  0  0  0  0  0  0  0  0  0
  -10.0026   -6.6000    0.0000 C   0  0  0  0  0  0  0  0  0  0  0  0
  -10.7171   -6.1875    0.0000 O   0  0  0  0  0  0  0  0  0  0  0  0
  -10.7171   -5.3625    0.0000 C   0  0  0  0  0  0  0  0  0  0  0  0
   -9.8921   -5.3625    0.0000 F   0  0  0  0  0  0  0  0  0  0  0  0
  -11.5421   -5.3625    0.0000 F   0  0  0  0  0  0  0  0  0  0  0  0
  -10.7171   -4.5375    0.0000 F   0  0  0  0  0  0  0  0  0  0  0  0
   -7.1447   -4.1250    0.0000 C   0  0  0  0  0  0  0  0  0  0  0  0
   -6.4302   -3.7125    0.0000 C   0  0  0  0  0  0  0  0  0  0  0  0
   -5.0013   -2.8875    0.0000 N   0  0  0  0  0  0  0  0  0  0  0  0
  1  2  1  0  0  0  0
  2  3  1  0  0  0  0
  3  4  4  0  0  0  0
  4  5  4  0  0  0  0
  5  6  1  0  0  0  0
  5  7  4  0  0  0  0
  7  8  4  0  0  0  0
  8  9  1  0  0  0  0
  9 10  1  0  0  0  0
 10 11  1  0  0  0  0
 11 12  1  0  0  0  0
 12 13  1  0  0  0  0
 13 14  2  0  0  0  0
 13 15  1  0  0  0  0
 15 16  1  0  0  0  0
 16 17  1  0  0  0  0
 17 18  4  0  0  0  0
 18 19  4  0  0  0  0
 19 20  4  0  0  0  0
 20 21  1  0  0  0  0
 20 22  4  0  0  0  0
 22 23  4  0  0  0  0
 17 23  4  0  0  0  0
 23 24  1  0  0  0  0
 24 25  1  0  0  0  0
 25 26  1  0  0  0  0
 25 27  1  0  0  0  0
 25 28  1  0  0  0  0
 12 29  1  0  0  0  0
 29 30  1  0  0  0  0
  9 30  1  0  0  0  0
  8 31  4  0  0  0  0
  3 31  4  0  0  0  0
M  END
>  <CdId>
102

>  <Mol Weight>
503.324

>  <Formula>
C19H22BrF3N6O2

>  <Molecule ChEMBL ID>
CHEMBL2392692

>  <Molecule Max Phase>
None

>  <Molecular Weight>
503.32

>  <#RO5 Violations>
1

>  <AlogP>
3.42

>  <Compound Key>
27, GSK2188931B

>  <Standard Type>
IC50

>  <Standard Relation>
'>'

>  <Standard Value>
30000.0

>  <Standard Units>
nM

$$$$

  Mrv2114 03112311372D          

 39 45  0  0  1  0            999 V2000
    6.0921   -2.7116    0.0000 C   0  0  0  0  0  0  0  0  0  0  0  0
    5.2751   -2.5968    0.0000 C   0  0  0  0  0  0  0  0  0  0  0  0
    4.9660   -1.8319    0.0000 N   0  0  0  0  0  0  0  0  0  0  0  0
    4.1655   -1.6323    0.0000 C   0  0  0  0  0  0  0  0  0  0  0  0
    4.1080   -0.8093    0.0000 C   0  0  0  0  0  0  0  0  0  0  0  0
    3.4084   -0.3721    0.0000 C   0  0  1  0  0  0  0  0  0  0  0  0
    3.0993   -1.1370    0.0000 C   0  0  0  0  0  0  0  0  0  0  0  0
    3.5365   -1.8367    0.0000 N   0  0  0  0  0  0  0  0  0  0  0  0
    3.0062   -2.4687    0.0000 N   0  0  0  0  0  0  0  0  0  0  0  0
    3.2058   -3.2692    0.0000 C   0  0  0  0  0  0  0  0  0  0  0  0
    2.2413   -2.1596    0.0000 C   0  0  0  0  0  0  0  0  0  0  0  0
    1.5416   -2.5968    0.0000 O   0  0  0  0  0  0  0  0  0  0  0  0
    2.2988   -1.3366    0.0000 O   0  0  0  0  0  0  0  0  0  0  0  0
    3.9604    0.2410    0.0000 N   0  0  0  0  0  0  0  0  0  0  0  0
    3.7054    1.0256    0.0000 C   0  0  1  0  0  0  0  0  0  0  0  0
    4.2575    1.6387    0.0000 C   0  0  0  0  0  0  0  0  0  0  0  0
    4.0860    2.4457    0.0000 N   0  0  0  0  0  0  0  0  0  0  0  0
    4.8004    2.8582    0.0000 C   0  0  0  0  0  0  0  0  0  0  0  0
    4.8867    3.6786    0.0000 C   0  0  0  0  0  0  0  0  0  0  0  0
    4.2192    4.1636    0.0000 C   0  0  0  0  0  0  0  0  0  0  0  0
    4.3055    4.9840    0.0000 C   0  0  0  0  0  0  0  0  0  0  0  0
    5.0591    5.3196    0.0000 C   0  0  0  0  0  0  0  0  0  0  0  0
    5.1454    6.1401    0.0000 F   0  0  0  0  0  0  0  0  0  0  0  0
    5.7266    4.8347    0.0000 C   0  0  0  0  0  0  0  0  0  0  0  0
    5.6403    4.0142    0.0000 N   0  0  0  0  0  0  0  0  0  0  0  0
    5.4135    2.3061    0.0000 C   0  0  0  0  0  0  0  0  0  0  0  0
    5.0780    1.5525    0.0000 N   0  0  0  0  0  0  0  0  0  0  0  0
    2.8985    1.1971    0.0000 C   0  0  0  0  0  0  0  0  0  0  0  0
    2.3464    0.5840    0.0000 C   0  0  0  0  0  0  0  0  0  0  0  0
    2.6014   -0.2006    0.0000 C   0  0  0  0  0  0  0  0  0  0  0  0
    1.9339   -0.6855    0.0000 N   0  0  0  0  0  0  0  0  0  0  0  0
    1.2665   -0.2006    0.0000 C   0  0  0  0  0  0  0  0  0  0  0  0
    0.4595   -0.3721    0.0000 C   0  0  0  0  0  0  0  0  0  0  0  0
   -0.0925    0.2410    0.0000 C   0  0  0  0  0  0  0  0  0  0  0  0
    0.1624    1.0256    0.0000 C   0  0  0  0  0  0  0  0  0  0  0  0
    0.9694    1.1971    0.0000 C   0  0  0  0  0  0  0  0  0  0  0  0
    1.5214    0.5840    0.0000 C   0  0  0  0  0  0  0  0  0  0  0  0
    4.8729   -0.5003    0.0000 C   0  0  0  0  0  0  0  0  0  0  0  0
    5.4032   -1.1322    0.0000 N   0  0  0  0  0  0  0  0  0  0  0  0
  1  2  1  0  0  0  0
  2  3  1  0  0  0  0
  3  4  4  0  0  0  0
  4  5  4  0  0  0  0
  6  5  1  6  0  0  0
  6  7  1  1  0  0  0
  7  8  4  0  0  0  0
  8  9  4  0  0  0  0
  9 10  1  0  0  0  0
  9 11  4  0  0  0  0
 11 12  2  0  0  0  0
 11 13  4  0  0  0  0
  7 13  4  0  0  0  0
  6 14  1  0  0  0  0
 15 14  1  0  0  0  0
 15 16  1  6  0  0  0
 16 17  4  0  0  0  0
 17 18  4  0  0  0  0
 18 19  1  0  0  0  0
 19 20  4  0  0  0  0
 20 21  4  0  0  0  0
 21 22  4  0  0  0  0
 22 23  1  0  0  0  0
 22 24  4  0  0  0  0
 24 25  4  0  0  0  0
 19 25  4  0  0  0  0
 18 26  4  0  0  0  0
 26 27  4  0  0  0  0
 16 27  4  0  0  0  0
 15 28  1  0  0  0  0
 28 29  1  0  0  0  0
 29 30  4  0  0  0  0
  6 30  1  0  0  0  0
 30 31  4  0  0  0  0
 31 32  4  0  0  0  0
 32 33  4  0  0  0  0
 33 34  4  0  0  0  0
 34 35  4  0  0  0  0
 35 36  4  0  0  0  0
 36 37  4  0  0  0  0
 29 37  4  0  0  0  0
 32 37  4  0  0  0  0
  5 38  4  0  0  0  0
 38 39  4  0  0  0  0
  3 39  4  0  0  0  0
M  STY  2   1 DAT   2 DAT
M  SAL   1  1  27
M  SDT   1 MRV_IMPLICIT_H                                        
M  SDD   1     0.0000    0.0000    DR    ALL  0       0  
M  SED   1 IMPL_H1
M  SAL   2  1  31
M  SDT   2 MRV_IMPLICIT_H                                        
M  SDD   2     0.0000    0.0000    DR    ALL  0       0  
M  SED   2 IMPL_H1
M  END
>  <CdId>
103

>  <Mol Weight>
525.548

>  <Formula>
C27H24FN9O2

>  <Molecule ChEMBL ID>
CHEMBL3582336

>  <Molecule Max Phase>
None

>  <Molecular Weight>
525.55

>  <#RO5 Violations>
1

>  <AlogP>
3.17

>  <Compound Key>
17e , MK-1421

>  <Standard Type>
IC50

>  <Standard Relation>
'>'

>  <Standard Value>
10000.0

>  <Standard Units>
nM

$$$$

  Mrv2114 03112311372D          

 44 48  0  0  1  0            999 V2000
    0.0962   -1.4834    0.0000 O   0  0  0  0  0  0  0  0  0  0  0  0
    0.8106   -1.0709    0.0000 C   0  0  0  0  0  0  0  0  0  0  0  0
    1.5251   -1.4834    0.0000 O   0  0  0  0  0  0  0  0  0  0  0  0
    0.8106   -0.2459    0.0000 C   0  0  0  0  0  0  0  0  0  0  0  0
    0.0962    0.1666    0.0000 C   0  0  0  0  0  0  0  0  0  0  0  0
    0.0962    0.9916    0.0000 C   0  0  0  0  0  0  0  0  0  0  0  0
    0.8106    1.4041    0.0000 C   0  0  0  0  0  0  0  0  0  0  0  0
    0.8106    2.2291    0.0000 C   0  0  0  0  0  0  0  0  0  0  0  0
    1.5251    2.6416    0.0000 O   0  0  0  0  0  0  0  0  0  0  0  0
    0.0962    2.6416    0.0000 N   0  0  0  0  0  0  0  0  0  0  0  0
   -0.6575    2.3060    0.0000 C   0  0  0  0  0  0  0  0  0  0  0  0
   -1.2095    2.9191    0.0000 C   0  0  0  0  0  0  0  0  0  0  0  0
   -0.7970    3.6336    0.0000 C   0  0  2  0  0  0  0  0  0  0  0  0
   -1.5507    3.9691    0.0000 C   0  0  0  0  0  0  0  0  0  0  0  0
   -2.2182    3.4842    0.0000 C   0  0  0  0  0  0  0  0  0  0  0  0
   -2.9718    3.8198    0.0000 C   0  0  0  0  0  0  0  0  0  0  0  0
   -3.0581    4.6402    0.0000 C   0  0  0  0  0  0  0  0  0  0  0  0
   -3.8117    4.9758    0.0000 C   0  0  0  0  0  0  0  0  0  0  0  0
   -4.5654    5.3114    0.0000 F   0  0  0  0  0  0  0  0  0  0  0  0
   -4.1473    4.2221    0.0000 C   0  0  0  0  0  0  0  0  0  0  0  0
   -4.4829    3.4684    0.0000 F   0  0  0  0  0  0  0  0  0  0  0  0
   -4.9010    4.5577    0.0000 F   0  0  0  0  0  0  0  0  0  0  0  0
   -3.3936    3.8866    0.0000 F   0  0  0  0  0  0  0  0  0  0  0  0
   -3.4762    5.7295    0.0000 C   0  0  0  0  0  0  0  0  0  0  0  0
   -3.1406    6.4831    0.0000 F   0  0  0  0  0  0  0  0  0  0  0  0
   -2.7225    5.3939    0.0000 F   0  0  0  0  0  0  0  0  0  0  0  0
   -4.2299    6.0650    0.0000 F   0  0  0  0  0  0  0  0  0  0  0  0
   -2.3906    5.1252    0.0000 C   0  0  0  0  0  0  0  0  0  0  0  0
   -1.6370    4.7896    0.0000 C   0  0  0  0  0  0  0  0  0  0  0  0
   -0.5421    4.4182    0.0000 S   0  0  0  0  0  0  0  0  0  0  0  0
    0.2425    4.1632    0.0000 O   0  0  0  0  0  0  0  0  0  0  0  0
   -1.3267    4.6731    0.0000 O   0  0  0  0  0  0  0  0  0  0  0  0
   -0.2872    5.2028    0.0000 C   0  0  0  0  0  0  0  0  0  0  0  0
   -0.8392    5.8159    0.0000 C   0  0  0  0  0  0  0  0  0  0  0  0
   -0.5843    6.6005    0.0000 C   0  0  0  0  0  0  0  0  0  0  0  0
    0.2227    6.7721    0.0000 C   0  0  0  0  0  0  0  0  0  0  0  0
    0.4776    7.5567    0.0000 F   0  0  0  0  0  0  0  0  0  0  0  0
    0.7747    6.1590    0.0000 C   0  0  0  0  0  0  0  0  0  0  0  0
    0.5198    5.3743    0.0000 C   0  0  0  0  0  0  0  0  0  0  0  0
    0.0099    3.4620    0.0000 C   0  0  0  0  0  0  0  0  0  0  0  0
    1.5251    0.9916    0.0000 C   0  0  0  0  0  0  0  0  0  0  0  0
    1.5251    0.1666    0.0000 C   0  0  0  0  0  0  0  0  0  0  0  0
    0.9481    0.8541    0.0000 C   0  0  0  0  0  0  0  0  0  0  0  0
    0.9481    0.3041    0.0000 C   0  0  0  0  0  0  0  0  0  0  0  0
  1  2  2  0  0  0  0
  2  3  1  0  0  0  0
  2  4  1  0  0  0  0
  4  5  1  0  0  0  0
  5  6  1  0  0  0  0
  6  7  1  0  0  0  0
  7  8  1  0  0  0  0
  8  9  2  0  0  0  0
  8 10  1  0  0  0  0
 10 11  1  0  0  0  0
 11 12  1  0  0  0  0
 13 12  1  0  0  0  0
 13 14  1  1  0  0  0
 14 15  4  0  0  0  0
 15 16  4  0  0  0  0
 16 17  4  0  0  0  0
 17 18  1  0  0  0  0
 18 19  1  0  0  0  0
 18 20  1  0  0  0  0
 20 21  1  0  0  0  0
 20 22  1  0  0  0  0
 20 23  1  0  0  0  0
 18 24  1  0  0  0  0
 24 25  1  0  0  0  0
 24 26  1  0  0  0  0
 24 27  1  0  0  0  0
 17 28  4  0  0  0  0
 28 29  4  0  0  0  0
 14 29  4  0  0  0  0
 13 30  1  6  0  0  0
 30 31  2  0  0  0  0
 30 32  2  0  0  0  0
 30 33  1  0  0  0  0
 33 34  4  0  0  0  0
 34 35  4  0  0  0  0
 35 36  4  0  0  0  0
 36 37  1  0  0  0  0
 36 38  4  0  0  0  0
 38 39  4  0  0  0  0
 33 39  4  0  0  0  0
 13 40  1  0  0  0  0
 10 40  1  0  0  0  0
  7 41  1  0  0  0  0
 41 42  1  0  0  0  0
  4 42  1  0  0  0  0
  7 43  1  0  0  0  0
 43 44  1  0  0  0  0
  4 44  1  0  0  0  0
M  END
>  <CdId>
104

>  <Mol Weight>
653.58

>  <Formula>
C29H27F8NO5S

>  <Molecule ChEMBL ID>
CHEMBL3964587

>  <Molecule Max Phase>
None

>  <Molecular Weight>
653.59

>  <#RO5 Violations>
2

>  <AlogP>
6.44

>  <Compound Key>
20

>  <Standard Type>
IC50

>  <Standard Relation>
'>'

>  <Standard Value>
10000.0

>  <Standard Units>
nM

$$$$

  Mrv2114 03112311372D          

 42 45  0  0  1  0            999 V2000
   -4.4194   -4.1417    0.0000 O   0  0  0  0  0  0  0  0  0  0  0  0
   -3.9345   -3.4743    0.0000 C   0  0  0  0  0  0  0  0  0  0  0  0
   -4.2700   -2.7206    0.0000 O   0  0  0  0  0  0  0  0  0  0  0  0
   -3.1140   -3.5605    0.0000 C   0  0  1  0  0  0  0  0  0  0  0  0
   -2.6291   -2.8931    0.0000 C   0  0  0  0  0  0  0  0  0  0  0  0
   -1.8086   -2.9793    0.0000 C   0  0  0  0  0  0  0  0  0  0  0  0
   -1.4730   -3.7330    0.0000 C   0  0  2  0  0  0  0  0  0  0  0  0
   -0.6525   -3.8192    0.0000 C   0  0  0  0  0  0  0  0  0  0  0  0
   -0.3170   -4.5729    0.0000 O   0  0  0  0  0  0  0  0  0  0  0  0
   -0.1676   -3.1518    0.0000 N   0  0  0  0  0  0  0  0  0  0  0  0
    0.6574   -3.1518    0.0000 C   0  0  0  0  0  0  0  0  0  0  0  0
    0.9123   -2.3672    0.0000 C   0  0  0  0  0  0  0  0  0  0  0  0
    0.2449   -1.8822    0.0000 C   0  0  2  0  0  0  0  0  0  0  0  0
    0.7969   -1.2691    0.0000 C   0  0  0  0  0  0  0  0  0  0  0  0
    0.5420   -0.4845    0.0000 C   0  0  0  0  0  0  0  0  0  0  0  0
    1.0940    0.1286    0.0000 C   0  0  0  0  0  0  0  0  0  0  0  0
    1.9010   -0.0430    0.0000 C   0  0  0  0  0  0  0  0  0  0  0  0
    2.4530    0.5701    0.0000 C   0  0  0  0  0  0  0  0  0  0  0  0
    3.0050    1.1832    0.0000 F   0  0  0  0  0  0  0  0  0  0  0  0
    1.8399    1.1222    0.0000 C   0  0  0  0  0  0  0  0  0  0  0  0
    1.2268    1.6742    0.0000 F   0  0  0  0  0  0  0  0  0  0  0  0
    2.3920    1.7353    0.0000 F   0  0  0  0  0  0  0  0  0  0  0  0
    1.2879    0.5091    0.0000 F   0  0  0  0  0  0  0  0  0  0  0  0
    3.0661    0.0181    0.0000 C   0  0  0  0  0  0  0  0  0  0  0  0
    3.6792   -0.5339    0.0000 F   0  0  0  0  0  0  0  0  0  0  0  0
    2.5141   -0.5950    0.0000 F   0  0  0  0  0  0  0  0  0  0  0  0
    3.6181    0.6312    0.0000 F   0  0  0  0  0  0  0  0  0  0  0  0
    2.1559   -0.8276    0.0000 C   0  0  0  0  0  0  0  0  0  0  0  0
    1.6039   -1.4407    0.0000 C   0  0  0  0  0  0  0  0  0  0  0  0
   -0.3071   -1.2691    0.0000 S   0  0  0  0  0  0  0  0  0  0  0  0
   -0.9202   -1.8212    0.0000 O   0  0  0  0  0  0  0  0  0  0  0  0
    0.3059   -0.7171    0.0000 O   0  0  0  0  0  0  0  0  0  0  0  0
   -0.8592   -0.6561    0.0000 C   0  0  0  0  0  0  0  0  0  0  0  0
   -1.6662   -0.8276    0.0000 C   0  0  0  0  0  0  0  0  0  0  0  0
   -2.2182   -0.2145    0.0000 C   0  0  0  0  0  0  0  0  0  0  0  0
   -1.9632    0.5701    0.0000 C   0  0  0  0  0  0  0  0  0  0  0  0
   -2.5153    1.1832    0.0000 F   0  0  0  0  0  0  0  0  0  0  0  0
   -1.1563    0.7417    0.0000 C   0  0  0  0  0  0  0  0  0  0  0  0
   -0.6042    0.1286    0.0000 C   0  0  0  0  0  0  0  0  0  0  0  0
   -0.4226   -2.3672    0.0000 C   0  0  0  0  0  0  0  0  0  0  0  0
   -1.9579   -4.4004    0.0000 C   0  0  0  0  0  0  0  0  0  0  0  0
   -2.7784   -4.3142    0.0000 C   0  0  0  0  0  0  0  0  0  0  0  0
  1  2  2  0  0  0  0
  2  3  1  0  0  0  0
  4  2  1  1  0  0  0
  4  5  1  0  0  0  0
  5  6  1  0  0  0  0
  7  6  1  0  0  0  0
  7  8  1  6  0  0  0
  8  9  2  0  0  0  0
  8 10  1  0  0  0  0
 10 11  1  0  0  0  0
 11 12  1  0  0  0  0
 13 12  1  0  0  0  0
 13 14  1  6  0  0  0
 14 15  4  0  0  0  0
 15 16  4  0  0  0  0
 16 17  4  0  0  0  0
 17 18  1  0  0  0  0
 18 19  1  0  0  0  0
 18 20  1  0  0  0  0
 20 21  1  0  0  0  0
 20 22  1  0  0  0  0
 20 23  1  0  0  0  0
 18 24  1  0  0  0  0
 24 25  1  0  0  0  0
 24 26  1  0  0  0  0
 24 27  1  0  0  0  0
 17 28  4  0  0  0  0
 28 29  4  0  0  0  0
 14 29  4  0  0  0  0
 13 30  1  1  0  0  0
 30 31  2  0  0  0  0
 30 32  2  0  0  0  0
 30 33  1  0  0  0  0
 33 34  4  0  0  0  0
 34 35  4  0  0  0  0
 35 36  4  0  0  0  0
 36 37  1  0  0  0  0
 36 38  4  0  0  0  0
 38 39  4  0  0  0  0
 33 39  4  0  0  0  0
 13 40  1  0  0  0  0
 10 40  1  0  0  0  0
  7 41  1  0  0  0  0
 41 42  1  0  0  0  0
  4 42  1  0  0  0  0
M  END
>  <CdId>
105

>  <Mol Weight>
627.55

>  <Formula>
C27H25F8NO5S

>  <Molecule ChEMBL ID>
CHEMBL3934548

>  <Molecule Max Phase>
None

>  <Molecular Weight>
627.55

>  <#RO5 Violations>
2

>  <AlogP>
5.91

>  <Compound Key>
26

>  <Standard Type>
IC50

>  <Standard Relation>
'='

>  <Standard Value>
680.0

>  <Standard Units>
nM

$$$$

  Mrv2114 03112311372D          

 30 32  0  0  1  0            999 V2000
   -1.7111   -2.5248    0.0000 C   0  0  0  0  0  0  0  0  0  0  0  0
   -2.2414   -3.1567    0.0000 C   0  0  2  0  0  0  0  0  0  0  0  0
   -2.7717   -2.5248    0.0000 C   0  0  0  0  0  0  0  0  0  0  0  0
   -3.5842   -2.6680    0.0000 C   0  0  0  0  0  0  0  0  0  0  0  0
   -4.1145   -2.0360    0.0000 C   0  0  0  0  0  0  0  0  0  0  0  0
   -4.9269   -2.1793    0.0000 N   0  0  0  0  0  0  0  0  0  0  0  0
   -5.4572   -1.5473    0.0000 C   0  0  0  0  0  0  0  0  0  0  0  0
   -5.1751   -0.7721    0.0000 O   0  0  0  0  0  0  0  0  0  0  0  0
   -6.2697   -1.6906    0.0000 C   0  0  0  0  0  0  0  0  0  0  0  0
   -6.5519   -2.4658    0.0000 C   0  0  0  0  0  0  0  0  0  0  0  0
   -7.3643   -2.6091    0.0000 C   0  0  0  0  0  0  0  0  0  0  0  0
   -7.8946   -1.9771    0.0000 C   0  0  0  0  0  0  0  0  0  0  0  0
   -8.7071   -2.1203    0.0000 C   0  0  0  0  0  0  0  0  0  0  0  0
   -9.5196   -2.2636    0.0000 N   0  0  0  0  0  0  0  0  0  0  0  0
   -7.6125   -1.2018    0.0000 C   0  0  0  0  0  0  0  0  0  0  0  0
   -6.8000   -1.0586    0.0000 N   0  0  0  0  0  0  0  0  0  0  0  0
   -3.8323   -1.2608    0.0000 C   0  0  0  0  0  0  0  0  0  0  0  0
   -3.0198   -1.1175    0.0000 C   0  0  0  0  0  0  0  0  0  0  0  0
   -2.4895   -1.7495    0.0000 C   0  0  0  0  0  0  0  0  0  0  0  0
   -1.6771   -1.6062    0.0000 F   0  0  0  0  0  0  0  0  0  0  0  0
   -1.5269   -3.5692    0.0000 N   0  0  0  0  0  0  0  0  0  0  0  0
   -1.5269   -4.3942    0.0000 C   0  0  0  0  0  0  0  0  0  0  0  0
   -0.8125   -4.8067    0.0000 N   0  0  0  0  0  0  0  0  0  0  0  0
   -2.2414   -4.8067    0.0000 C   0  0  0  0  0  0  0  0  0  0  0  0
   -2.9559   -4.3942    0.0000 O   0  0  0  0  0  0  0  0  0  0  0  0
   -2.9559   -3.5692    0.0000 C   0  0  1  0  0  0  0  0  0  0  0  0
   -3.6704   -3.1567    0.0000 C   0  0  0  0  0  0  0  0  0  0  0  0
   -4.3848   -2.7442    0.0000 F   0  0  0  0  0  0  0  0  0  0  0  0
   -4.0059   -2.4031    0.0000 F   0  0  0  0  0  0  0  0  0  0  0  0
   -4.0829   -3.8712    0.0000 F   0  0  0  0  0  0  0  0  0  0  0  0
  2  1  1  6  0  0  0
  2  3  1  1  0  0  0
  3  4  4  0  0  0  0
  4  5  4  0  0  0  0
  5  6  1  0  0  0  0
  6  7  1  0  0  0  0
  7  8  2  0  0  0  0
  7  9  1  0  0  0  0
  9 10  4  0  0  0  0
 10 11  4  0  0  0  0
 11 12  4  0  0  0  0
 12 13  1  0  0  0  0
 13 14  3  0  0  0  0
 12 15  4  0  0  0  0
 15 16  4  0  0  0  0
  9 16  4  0  0  0  0
  5 17  4  0  0  0  0
 17 18  4  0  0  0  0
 18 19  4  0  0  0  0
  3 19  4  0  0  0  0
 19 20  1  0  0  0  0
  2 21  1  0  0  0  0
 21 22  2  0  0  0  0
 22 23  1  0  0  0  0
 22 24  1  0  0  0  0
 24 25  1  0  0  0  0
 26 25  1  0  0  0  0
  2 26  1  0  0  0  0
 26 27  1  1  0  0  0
 27 28  1  0  0  0  0
 27 29  1  0  0  0  0
 27 30  1  0  0  0  0
M  END
>  <CdId>
106

>  <Mol Weight>
421.356

>  <Formula>
C19H15F4N5O2

>  <Molecule ChEMBL ID>
CHEMBL4165225

>  <Molecule Max Phase>
None

>  <Molecular Weight>
421.35

>  <#RO5 Violations>
0

>  <AlogP>
2.88

>  <Compound Key>
3

>  <Standard Type>
IC50

>  <Standard Relation>
'>'

>  <Standard Value>
30000.0

>  <Standard Units>
nM

$$$$

  Mrv2114 03112311372D          

 42 47  0  0  1  0            999 V2000
   -3.5724   -7.0125    0.0000 C   0  0  0  0  0  0  0  0  0  0  0  0
   -3.5724   -6.1875    0.0000 N   0  0  0  0  0  0  0  0  0  0  0  0
   -2.8579   -5.7750    0.0000 C   0  0  1  0  0  0  0  0  0  0  0  0
   -2.1434   -6.1875    0.0000 C   0  0  0  0  0  0  0  0  0  0  0  0
   -2.8579   -4.9500    0.0000 C   0  0  0  0  0  0  0  0  0  0  0  0
   -3.5724   -4.5375    0.0000 O   0  0  0  0  0  0  0  0  0  0  0  0
   -2.1434   -4.5375    0.0000 N   0  0  0  0  0  0  0  0  0  0  0  0
   -2.1434   -3.7125    0.0000 C   0  0  0  0  0  0  0  0  0  0  0  0
   -2.8579   -3.3000    0.0000 C   0  0  0  0  0  0  0  0  0  0  0  0
   -2.8579   -2.4750    0.0000 C   0  0  0  0  0  0  0  0  0  0  0  0
   -2.1434   -2.0625    0.0000 C   0  0  0  0  0  0  0  0  0  0  0  0
   -2.1434   -1.2375    0.0000 C   0  0  0  0  0  0  0  0  0  0  0  0
   -2.8109   -0.7526    0.0000 C   0  0  0  0  0  0  0  0  0  0  0  0
   -3.5955   -1.0075    0.0000 C   0  0  0  0  0  0  0  0  0  0  0  0
   -3.8504   -1.7921    0.0000 C   0  0  0  0  0  0  0  0  0  0  0  0
   -4.6754   -1.7921    0.0000 N   0  0  0  0  0  0  0  0  0  0  0  0
   -4.9304   -1.0075    0.0000 N   0  0  0  0  0  0  0  0  0  0  0  0
   -5.7150   -0.7526    0.0000 C   0  0  0  0  0  0  0  0  0  0  0  0
   -4.2629   -0.5226    0.0000 C   0  0  0  0  0  0  0  0  0  0  0  0
   -2.5559    0.0320    0.0000 N   0  0  0  0  0  0  0  0  0  0  0  0
   -1.7309    0.0320    0.0000 C   0  0  0  0  0  0  0  0  0  0  0  0
   -1.1789    0.6451    0.0000 C   0  0  0  0  0  0  0  0  0  0  0  0
   -0.3719    0.4736    0.0000 C   0  0  0  0  0  0  0  0  0  0  0  0
    0.1801    1.0867    0.0000 C   0  0  0  0  0  0  0  0  0  0  0  0
   -0.1170   -0.3110    0.0000 C   0  0  0  0  0  0  0  0  0  0  0  0
   -0.6690   -0.9241    0.0000 C   0  0  0  0  0  0  0  0  0  0  0  0
   -1.4760   -0.7526    0.0000 N   0  0  0  0  0  0  0  0  0  0  0  0
   -1.4289   -2.4750    0.0000 C   0  0  0  0  0  0  0  0  0  0  0  0
   -0.7145   -2.0625    0.0000 C   0  0  0  0  0  0  0  0  0  0  0  0
    0.0000   -1.6500    0.0000 C   0  0  0  0  0  0  0  0  0  0  0  0
    0.7145   -1.2375    0.0000 C   0  0  0  0  0  0  0  0  0  0  0  0
    0.7145   -0.4125    0.0000 C   0  0  0  0  0  0  0  0  0  0  0  0
    1.4289    0.0000    0.0000 C   0  0  0  0  0  0  0  0  0  0  0  0
    2.1434   -0.4125    0.0000 C   0  0  0  0  0  0  0  0  0  0  0  0
    2.8579    0.0000    0.0000 C   0  0  0  0  0  0  0  0  0  0  0  0
    2.8579    0.8250    0.0000 C   0  0  0  0  0  0  0  0  0  0  0  0
    3.5724   -0.4125    0.0000 N   0  0  0  0  0  0  0  0  0  0  0  0
    3.5724   -1.2375    0.0000 C   0  0  0  0  0  0  0  0  0  0  0  0
    2.8579   -1.6500    0.0000 C   0  0  0  0  0  0  0  0  0  0  0  0
    2.1434   -1.2375    0.0000 C   0  0  0  0  0  0  0  0  0  0  0  0
    1.4289   -1.6500    0.0000 C   0  0  0  0  0  0  0  0  0  0  0  0
   -1.4289   -3.3000    0.0000 N   0  0  0  0  0  0  0  0  0  0  0  0
  1  2  1  0  0  0  0
  3  2  1  0  0  0  0
  3  4  1  6  0  0  0
  3  5  1  0  0  0  0
  5  6  2  0  0  0  0
  5  7  1  0  0  0  0
  7  8  1  0  0  0  0
  8  9  4  0  0  0  0
  9 10  4  0  0  0  0
 10 11  4  0  0  0  0
 11 12  1  0  0  0  0
 12 13  4  0  0  0  0
 13 14  1  0  0  0  0
 14 15  4  0  0  0  0
 15 16  4  0  0  0  0
 16 17  4  0  0  0  0
 17 18  1  0  0  0  0
 17 19  4  0  0  0  0
 14 19  4  0  0  0  0
 13 20  4  0  0  0  0
 20 21  4  0  0  0  0
 21 22  4  0  0  0  0
 22 23  4  0  0  0  0
 23 24  1  0  0  0  0
 23 25  4  0  0  0  0
 25 26  4  0  0  0  0
 26 27  4  0  0  0  0
 12 27  4  0  0  0  0
 21 27  4  0  0  0  0
 11 28  4  0  0  0  0
 28 29  1  0  0  0  0
 29 30  3  0  0  0  0
 30 31  1  0  0  0  0
 31 32  4  0  0  0  0
 32 33  4  0  0  0  0
 33 34  4  0  0  0  0
 34 35  4  0  0  0  0
 35 36  1  0  0  0  0
 35 37  4  0  0  0  0
 37 38  4  0  0  0  0
 38 39  4  0  0  0  0
 39 40  4  0  0  0  0
 34 40  4  0  0  0  0
 40 41  4  0  0  0  0
 31 41  4  0  0  0  0
 28 42  4  0  0  0  0
  8 42  4  0  0  0  0
M  END
>  <CdId>
107

>  <Mol Weight>
554.658

>  <Formula>
C33H30N8O

>  <Molecule ChEMBL ID>
CHEMBL3981054

>  <Molecule Max Phase>
None

>  <Molecular Weight>
554.66

>  <#RO5 Violations>
1

>  <AlogP>
4.91

>  <Compound Key>
BDBM253993

>  <Standard Type>
IC50

>  <Standard Relation>
'='

>  <Standard Value>
14000.0

>  <Standard Units>
nM

$$$$

  Mrv2114 03112311372D          

 43 48  0  0  1  0            999 V2000
   -3.5724   -7.0125    0.0000 C   0  0  0  0  0  0  0  0  0  0  0  0
   -3.5724   -6.1875    0.0000 N   0  0  0  0  0  0  0  0  0  0  0  0
   -2.8579   -5.7750    0.0000 C   0  0  1  0  0  0  0  0  0  0  0  0
   -2.1434   -6.1875    0.0000 C   0  0  0  0  0  0  0  0  0  0  0  0
   -2.8579   -4.9500    0.0000 C   0  0  0  0  0  0  0  0  0  0  0  0
   -3.5724   -4.5375    0.0000 O   0  0  0  0  0  0  0  0  0  0  0  0
   -2.1434   -4.5375    0.0000 N   0  0  0  0  0  0  0  0  0  0  0  0
   -2.1434   -3.7125    0.0000 C   0  0  0  0  0  0  0  0  0  0  0  0
   -2.8579   -3.3000    0.0000 C   0  0  0  0  0  0  0  0  0  0  0  0
   -2.8579   -2.4750    0.0000 C   0  0  0  0  0  0  0  0  0  0  0  0
   -2.1434   -2.0625    0.0000 C   0  0  0  0  0  0  0  0  0  0  0  0
   -2.1434   -1.2375    0.0000 C   0  0  0  0  0  0  0  0  0  0  0  0
   -2.8109   -0.7526    0.0000 C   0  0  0  0  0  0  0  0  0  0  0  0
   -3.5955   -1.0075    0.0000 C   0  0  0  0  0  0  0  0  0  0  0  0
   -3.7670   -1.8145    0.0000 C   0  0  0  0  0  0  0  0  0  0  0  0
   -4.5516   -2.0694    0.0000 C   0  0  0  0  0  0  0  0  0  0  0  0
   -5.1647   -1.5174    0.0000 C   0  0  0  0  0  0  0  0  0  0  0  0
   -4.9932   -0.7104    0.0000 N   0  0  0  0  0  0  0  0  0  0  0  0
   -4.2086   -0.4555    0.0000 C   0  0  0  0  0  0  0  0  0  0  0  0
   -4.0370    0.3515    0.0000 O   0  0  0  0  0  0  0  0  0  0  0  0
   -3.2524    0.6064    0.0000 C   0  0  0  0  0  0  0  0  0  0  0  0
   -2.5559    0.0320    0.0000 N   0  0  0  0  0  0  0  0  0  0  0  0
   -1.7309    0.0320    0.0000 C   0  0  0  0  0  0  0  0  0  0  0  0
   -1.1789    0.6451    0.0000 C   0  0  0  0  0  0  0  0  0  0  0  0
   -0.3719    0.4736    0.0000 C   0  0  0  0  0  0  0  0  0  0  0  0
   -0.1170   -0.3110    0.0000 C   0  0  0  0  0  0  0  0  0  0  0  0
   -0.6690   -0.9241    0.0000 C   0  0  0  0  0  0  0  0  0  0  0  0
   -1.4760   -0.7526    0.0000 N   0  0  0  0  0  0  0  0  0  0  0  0
   -1.4289   -2.4750    0.0000 C   0  0  0  0  0  0  0  0  0  0  0  0
   -0.7145   -2.0625    0.0000 C   0  0  0  0  0  0  0  0  0  0  0  0
    0.0000   -1.6500    0.0000 C   0  0  0  0  0  0  0  0  0  0  0  0
    0.7145   -1.2375    0.0000 C   0  0  0  0  0  0  0  0  0  0  0  0
    0.7145   -0.4125    0.0000 C   0  0  0  0  0  0  0  0  0  0  0  0
    1.4289    0.0000    0.0000 C   0  0  0  0  0  0  0  0  0  0  0  0
    2.1434   -0.4125    0.0000 C   0  0  0  0  0  0  0  0  0  0  0  0
    2.8579    0.0000    0.0000 C   0  0  0  0  0  0  0  0  0  0  0  0
    2.8579    0.8250    0.0000 C   0  0  0  0  0  0  0  0  0  0  0  0
    3.5724   -0.4125    0.0000 N   0  0  0  0  0  0  0  0  0  0  0  0
    3.5724   -1.2375    0.0000 C   0  0  0  0  0  0  0  0  0  0  0  0
    2.8579   -1.6500    0.0000 C   0  0  0  0  0  0  0  0  0  0  0  0
    2.1434   -1.2375    0.0000 C   0  0  0  0  0  0  0  0  0  0  0  0
    1.4289   -1.6500    0.0000 C   0  0  0  0  0  0  0  0  0  0  0  0
   -1.4289   -3.3000    0.0000 N   0  0  0  0  0  0  0  0  0  0  0  0
  1  2  1  0  0  0  0
  3  2  1  0  0  0  0
  3  4  1  6  0  0  0
  3  5  1  0  0  0  0
  5  6  2  0  0  0  0
  5  7  1  0  0  0  0
  7  8  1  0  0  0  0
  8  9  4  0  0  0  0
  9 10  4  0  0  0  0
 10 11  4  0  0  0  0
 11 12  1  0  0  0  0
 12 13  4  0  0  0  0
 13 14  1  0  0  0  0
 14 15  4  0  0  0  0
 15 16  4  0  0  0  0
 16 17  4  0  0  0  0
 17 18  4  0  0  0  0
 18 19  4  0  0  0  0
 14 19  4  0  0  0  0
 19 20  1  0  0  0  0
 20 21  1  0  0  0  0
 13 22  4  0  0  0  0
 22 23  4  0  0  0  0
 23 24  4  0  0  0  0
 24 25  4  0  0  0  0
 25 26  4  0  0  0  0
 26 27  4  0  0  0  0
 27 28  4  0  0  0  0
 12 28  4  0  0  0  0
 23 28  4  0  0  0  0
 11 29  4  0  0  0  0
 29 30  1  0  0  0  0
 30 31  3  0  0  0  0
 31 32  1  0  0  0  0
 32 33  4  0  0  0  0
 33 34  4  0  0  0  0
 34 35  4  0  0  0  0
 35 36  4  0  0  0  0
 36 37  1  0  0  0  0
 36 38  4  0  0  0  0
 38 39  4  0  0  0  0
 39 40  4  0  0  0  0
 40 41  4  0  0  0  0
 35 41  4  0  0  0  0
 41 42  4  0  0  0  0
 32 42  4  0  0  0  0
 29 43  4  0  0  0  0
  8 43  4  0  0  0  0
M  END
>  <CdId>
108

>  <Mol Weight>
567.653

>  <Formula>
C34H29N7O2

>  <Molecule ChEMBL ID>
CHEMBL3956933

>  <Molecule Max Phase>
None

>  <Molecular Weight>
567.65

>  <#RO5 Violations>
2

>  <AlogP>
5.27

>  <Compound Key>
BDBM254006

>  <Standard Type>
IC50

>  <Standard Relation>
'='

>  <Standard Value>
3400.0

>  <Standard Units>
nM

$$$$

  Mrv2114 03112311372D          

 42 47  0  0  1  0            999 V2000
   -2.7933    2.6314    0.0000 C   0  0  0  0  0  0  0  0  0  0  0  0
   -2.7933    3.4564    0.0000 C   0  0  0  0  0  0  0  0  0  0  0  0
   -3.5078    3.8689    0.0000 C   0  0  0  0  0  0  0  0  0  0  0  0
   -4.2223    3.4564    0.0000 C   0  0  0  0  0  0  0  0  0  0  0  0
   -4.9367    3.8689    0.0000 C   0  0  0  0  0  0  0  0  0  0  0  0
   -4.9367    4.6939    0.0000 F   0  0  0  0  0  0  0  0  0  0  0  0
   -5.6512    3.4564    0.0000 C   0  0  0  0  0  0  0  0  0  0  0  0
   -5.6512    2.6314    0.0000 C   0  0  0  0  0  0  0  0  0  0  0  0
   -6.3657    2.2189    0.0000 C   0  0  0  0  0  0  0  0  0  0  0  0
   -6.3657    1.3939    0.0000 N   0  0  0  0  0  0  0  0  0  0  0  0
   -7.0802    2.6314    0.0000 O   0  0  0  0  0  0  0  0  0  0  0  0
   -4.9367    2.2189    0.0000 C   0  0  0  0  0  0  0  0  0  0  0  0
   -4.7652    1.4119    0.0000 N   0  0  0  0  0  0  0  0  0  0  0  0
   -3.9447    1.3257    0.0000 C   0  0  0  0  0  0  0  0  0  0  0  0
   -3.6092    2.0793    0.0000 C   0  0  0  0  0  0  0  0  0  0  0  0
   -4.2223    2.6314    0.0000 C   0  0  0  0  0  0  0  0  0  0  0  0
   -2.7887    2.1656    0.0000 C   0  0  0  0  0  0  0  0  0  0  0  0
   -2.3038    1.4981    0.0000 C   0  0  0  0  0  0  0  0  0  0  0  0
   -2.6393    0.7445    0.0000 C   0  0  2  0  0  0  0  0  0  0  0  0
   -2.1544    0.0770    0.0000 C   0  0  0  0  0  0  0  0  0  0  0  0
   -1.6695   -0.5904    0.0000 C   0  0  0  0  0  0  0  0  0  0  0  0
   -1.4870    0.5619    0.0000 C   0  0  0  0  0  0  0  0  0  0  0  0
   -2.8219   -0.4079    0.0000 O   0  0  0  0  0  0  0  0  0  0  0  0
   -3.4598    0.6582    0.0000 C   0  0  0  0  0  0  0  0  0  0  0  0
   -3.5078    4.6939    0.0000 C   0  0  0  0  0  0  0  0  0  0  0  0
   -2.7933    5.1064    0.0000 C   0  0  0  0  0  0  0  0  0  0  0  0
   -2.0789    4.6939    0.0000 C   0  0  0  0  0  0  0  0  0  0  0  0
   -2.0789    3.8689    0.0000 C   0  0  0  0  0  0  0  0  0  0  0  0
   -1.3644    3.4564    0.0000 N   0  0  0  0  0  0  0  0  0  0  0  0
   -0.6499    3.8689    0.0000 C   0  0  0  0  0  0  0  0  0  0  0  0
   -0.6499    4.6939    0.0000 O   0  0  0  0  0  0  0  0  0  0  0  0
    0.0645    3.4564    0.0000 C   0  0  0  0  0  0  0  0  0  0  0  0
    0.7790    3.8689    0.0000 C   0  0  0  0  0  0  0  0  0  0  0  0
    1.4935    3.4564    0.0000 C   0  0  0  0  0  0  0  0  0  0  0  0
    1.4935    2.6314    0.0000 C   0  0  0  0  0  0  0  0  0  0  0  0
    0.7790    2.2189    0.0000 C   0  0  0  0  0  0  0  0  0  0  0  0
    0.7790    1.3939    0.0000 F   0  0  0  0  0  0  0  0  0  0  0  0
    0.0645    2.6314    0.0000 C   0  0  0  0  0  0  0  0  0  0  0  0
   -0.6499    2.2189    0.0000 N   0  0  0  0  0  0  0  0  0  0  0  0
   -0.6499    1.3939    0.0000 C   0  0  0  0  0  0  0  0  0  0  0  0
   -1.3644    2.6314    0.0000 C   0  0  0  0  0  0  0  0  0  0  0  0
   -2.0789    2.2189    0.0000 O   0  0  0  0  0  0  0  0  0  0  0  0
  1  2  1  0  0  0  0
  2  3  4  0  0  0  0
  3  4  1  0  0  0  0
  4  5  4  0  0  0  0
  5  6  1  0  0  0  0
  5  7  4  0  0  0  0
  7  8  4  0  0  0  0
  8  9  1  0  0  0  0
  9 10  1  0  0  0  0
  9 11  2  0  0  0  0
  8 12  4  0  0  0  0
 12 13  4  0  0  0  0
 13 14  4  0  0  0  0
 14 15  4  0  0  0  0
 15 16  4  0  0  0  0
  4 16  4  0  0  0  0
 12 16  4  0  0  0  0
 15 17  1  0  0  0  0
 17 18  1  0  0  0  0
 19 18  1  0  0  0  0
 19 20  1  6  0  0  0
 20 21  1  0  0  0  0
 20 22  1  0  0  0  0
 20 23  1  0  0  0  0
 19 24  1  0  0  0  0
 14 24  1  0  0  0  0
  3 25  4  0  0  0  0
 25 26  4  0  0  0  0
 26 27  4  0  0  0  0
 27 28  4  0  0  0  0
  2 28  4  0  0  0  0
 28 29  1  0  0  0  0
 29 30  4  0  0  0  0
 30 31  2  0  0  0  0
 30 32  4  0  0  0  0
 32 33  4  0  0  0  0
 33 34  4  0  0  0  0
 34 35  4  0  0  0  0
 35 36  4  0  0  0  0
 36 37  1  0  0  0  0
 36 38  4  0  0  0  0
 32 38  4  0  0  0  0
 38 39  4  0  0  0  0
 39 40  1  0  0  0  0
 39 41  4  0  0  0  0
 29 41  4  0  0  0  0
 41 42  2  0  0  0  0
M  STY  1   1 DAT
M  SAL   1  1  13
M  SDT   1 MRV_IMPLICIT_H                                        
M  SDD   1     0.0000    0.0000    DR    ALL  0       0  
M  SED   1 IMPL_H1
M  END
>  <CdId>
109

>  <Mol Weight>
572.613

>  <Formula>
C32H30F2N4O4

>  <Molecule ChEMBL ID>
CHEMBL3900554

>  <Molecule Name>
BMS-986142

>  <Molecule Max Phase>
2

>  <Molecular Weight>
572.61

>  <#RO5 Violations>
1

>  <AlogP>
4.4

>  <Compound Key>
14f; (R)-atropisomer

>  <Standard Type>
IC50

>  <Standard Relation>
'='

>  <Standard Value>
2600.0

>  <Standard Units>
nM

$$$$

  Mrv2114 03112311372D          

 36 39  0  0  0  0            999 V2000
    5.7158    4.9500    0.0000 C   0  0  0  0  0  0  0  0  0  0  0  0
    5.0013    4.5375    0.0000 O   0  0  0  0  0  0  0  0  0  0  0  0
    5.0013    3.7125    0.0000 C   0  0  0  0  0  0  0  0  0  0  0  0
    5.7158    3.3000    0.0000 C   0  0  0  0  0  0  0  0  0  0  0  0
    5.7158    2.4750    0.0000 C   0  0  0  0  0  0  0  0  0  0  0  0
    6.4302    2.0625    0.0000 O   0  0  0  0  0  0  0  0  0  0  0  0
    6.4302    1.2375    0.0000 C   0  0  0  0  0  0  0  0  0  0  0  0
    5.0013    2.0625    0.0000 N   0  0  0  0  0  0  0  0  0  0  0  0
    4.2868    2.4750    0.0000 C   0  0  0  0  0  0  0  0  0  0  0  0
    3.5724    2.0625    0.0000 C   0  0  0  0  0  0  0  0  0  0  0  0
    3.5724    1.2375    0.0000 C   0  0  0  0  0  0  0  0  0  0  0  0
    2.8579    0.8250    0.0000 C   0  0  0  0  0  0  0  0  0  0  0  0
    2.1434    1.2375    0.0000 C   0  0  0  0  0  0  0  0  0  0  0  0
    1.4289    0.8250    0.0000 N   0  0  0  0  0  0  0  0  0  0  0  0
    1.4289   -0.0000    0.0000 C   0  0  0  0  0  0  0  0  0  0  0  0
    2.1434   -0.4125    0.0000 O   0  0  0  0  0  0  0  0  0  0  0  0
    0.7145   -0.4125    0.0000 N   0  0  0  0  0  0  0  0  0  0  0  0
    0.7145   -1.2375    0.0000 C   0  0  0  0  0  0  0  0  0  0  0  0
    1.3819   -1.7224    0.0000 C   0  0  0  0  0  0  0  0  0  0  0  0
    1.1270   -2.5070    0.0000 C   0  0  0  0  0  0  0  0  0  0  0  0
    1.6119   -3.1745    0.0000 C   0  0  0  0  0  0  0  0  0  0  0  0
    2.0968   -3.8419    0.0000 C   0  0  0  0  0  0  0  0  0  0  0  0
    0.9445   -3.6594    0.0000 C   0  0  0  0  0  0  0  0  0  0  0  0
    2.2793   -2.6896    0.0000 C   0  0  0  0  0  0  0  0  0  0  0  0
    0.3020   -2.5070    0.0000 N   0  0  0  0  0  0  0  0  0  0  0  0
    0.0470   -1.7224    0.0000 N   0  0  0  0  0  0  0  0  0  0  0  0
   -0.7376   -1.4675    0.0000 C   0  0  0  0  0  0  0  0  0  0  0  0
   -1.3507   -2.0195    0.0000 C   0  0  0  0  0  0  0  0  0  0  0  0
   -2.1353   -1.7646    0.0000 C   0  0  0  0  0  0  0  0  0  0  0  0
   -2.3068   -0.9576    0.0000 C   0  0  0  0  0  0  0  0  0  0  0  0
   -3.0915   -0.7027    0.0000 C   0  0  0  0  0  0  0  0  0  0  0  0
   -1.6937   -0.4056    0.0000 C   0  0  0  0  0  0  0  0  0  0  0  0
   -0.9091   -0.6605    0.0000 C   0  0  0  0  0  0  0  0  0  0  0  0
    2.1434    2.0625    0.0000 C   0  0  0  0  0  0  0  0  0  0  0  0
    2.8579    2.4750    0.0000 C   0  0  0  0  0  0  0  0  0  0  0  0
    4.2868    3.3000    0.0000 N   0  0  0  0  0  0  0  0  0  0  0  0
  1  2  1  0  0  0  0
  2  3  1  0  0  0  0
  3  4  4  0  0  0  0
  4  5  4  0  0  0  0
  5  6  1  0  0  0  0
  6  7  1  0  0  0  0
  5  8  4  0  0  0  0
  8  9  4  0  0  0  0
  9 10  1  0  0  0  0
 10 11  4  0  0  0  0
 11 12  4  0  0  0  0
 12 13  4  0  0  0  0
 13 14  1  0  0  0  0
 14 15  1  0  0  0  0
 15 16  2  0  0  0  0
 15 17  1  0  0  0  0
 17 18  1  0  0  0  0
 18 19  4  0  0  0  0
 19 20  4  0  0  0  0
 20 21  1  0  0  0  0
 21 22  1  0  0  0  0
 21 23  1  0  0  0  0
 21 24  1  0  0  0  0
 20 25  4  0  0  0  0
 25 26  4  0  0  0  0
 18 26  4  0  0  0  0
 26 27  1  0  0  0  0
 27 28  4  0  0  0  0
 28 29  4  0  0  0  0
 29 30  4  0  0  0  0
 30 31  1  0  0  0  0
 30 32  4  0  0  0  0
 32 33  4  0  0  0  0
 27 33  4  0  0  0  0
 13 34  4  0  0  0  0
 34 35  4  0  0  0  0
 10 35  4  0  0  0  0
  9 36  4  0  0  0  0
  3 36  4  0  0  0  0
M  END
>  <CdId>
110

>  <Mol Weight>
486.576

>  <Formula>
C27H30N6O3

>  <Molecule ChEMBL ID>
CHEMBL2425159

>  <Molecule Max Phase>
None

>  <Molecular Weight>
486.58

>  <#RO5 Violations>
1

>  <AlogP>
5.6

>  <Compound Key>
30

>  <Standard Type>
IC50

>  <Standard Relation>
'>'

>  <Standard Value>
10000.0

>  <Standard Units>
nM

$$$$

  Mrv2114 03112311372D          

 34 37  0  0  0  0            999 V2000
    1.1296   -7.7353    0.0000 O   0  0  0  0  0  0  0  0  0  0  0  0
    1.5421   -7.0208    0.0000 N   0  3  0  0  0  0  0  0  0  0  0  0
    2.3671   -7.0208    0.0000 O   0  5  0  0  0  0  0  0  0  0  0  0
    1.1296   -6.3063    0.0000 C   0  0  0  0  0  0  0  0  0  0  0  0
    0.3046   -6.3063    0.0000 C   0  0  0  0  0  0  0  0  0  0  0  0
   -0.1079   -5.5919    0.0000 C   0  0  0  0  0  0  0  0  0  0  0  0
    0.3046   -4.8774    0.0000 C   0  0  0  0  0  0  0  0  0  0  0  0
    1.1296   -4.8774    0.0000 C   0  0  0  0  0  0  0  0  0  0  0  0
    1.5421   -4.1629    0.0000 C   0  0  0  0  0  0  0  0  0  0  0  0
    1.1296   -3.4485    0.0000 C   0  0  0  0  0  0  0  0  0  0  0  0
    1.5421   -2.7340    0.0000 C   0  0  0  0  0  0  0  0  0  0  0  0
    2.3671   -2.7340    0.0000 C   0  0  0  0  0  0  0  0  0  0  0  0
    2.7796   -2.0195    0.0000 S   0  0  0  0  0  0  0  0  0  0  0  0
    3.4941   -2.4320    0.0000 O   0  0  0  0  0  0  0  0  0  0  0  0
    2.0652   -1.6070    0.0000 O   0  0  0  0  0  0  0  0  0  0  0  0
    3.1921   -1.3050    0.0000 N   0  0  0  0  0  0  0  0  0  0  0  0
    4.0171   -1.3050    0.0000 C   0  0  0  0  0  0  0  0  0  0  0  0
    4.4296   -2.0195    0.0000 C   0  0  0  0  0  0  0  0  0  0  0  0
    5.2546   -2.0195    0.0000 C   0  0  0  0  0  0  0  0  0  0  0  0
    5.6671   -2.7340    0.0000 O   0  0  0  0  0  0  0  0  0  0  0  0
    2.7796   -0.5906    0.0000 C   0  0  0  0  0  0  0  0  0  0  0  0
    1.9591   -0.5043    0.0000 C   0  0  0  0  0  0  0  0  0  0  0  0
    1.7876    0.3026    0.0000 C   0  0  0  0  0  0  0  0  0  0  0  0
    2.5021    0.7151    0.0000 N   0  0  0  0  0  0  0  0  0  0  0  0
    3.1152    0.1631    0.0000 N   0  0  0  0  0  0  0  0  0  0  0  0
    3.9222    0.3346    0.0000 C   0  0  0  0  0  0  0  0  0  0  0  0
    4.1771    1.1192    0.0000 C   0  0  0  0  0  0  0  0  0  0  0  0
    4.9841    1.2908    0.0000 C   0  0  0  0  0  0  0  0  0  0  0  0
    5.5361    0.6777    0.0000 C   0  0  0  0  0  0  0  0  0  0  0  0
    5.2812   -0.1069    0.0000 C   0  0  0  0  0  0  0  0  0  0  0  0
    4.4742   -0.2785    0.0000 C   0  0  0  0  0  0  0  0  0  0  0  0
    2.7796   -3.4485    0.0000 C   0  0  0  0  0  0  0  0  0  0  0  0
    2.3671   -4.1629    0.0000 C   0  0  0  0  0  0  0  0  0  0  0  0
    1.5421   -5.5919    0.0000 C   0  0  0  0  0  0  0  0  0  0  0  0
  1  2  2  0  0  0  0
  2  3  1  0  0  0  0
  2  4  1  0  0  0  0
  4  5  4  0  0  0  0
  5  6  4  0  0  0  0
  6  7  4  0  0  0  0
  7  8  4  0  0  0  0
  8  9  1  0  0  0  0
  9 10  4  0  0  0  0
 10 11  4  0  0  0  0
 11 12  4  0  0  0  0
 12 13  1  0  0  0  0
 13 14  2  0  0  0  0
 13 15  2  0  0  0  0
 13 16  1  0  0  0  0
 16 17  1  0  0  0  0
 17 18  1  0  0  0  0
 18 19  1  0  0  0  0
 19 20  1  0  0  0  0
 16 21  1  0  0  0  0
 21 22  4  0  0  0  0
 22 23  4  0  0  0  0
 23 24  4  0  0  0  0
 24 25  4  0  0  0  0
 21 25  4  0  0  0  0
 25 26  1  0  0  0  0
 26 27  4  0  0  0  0
 27 28  4  0  0  0  0
 28 29  4  0  0  0  0
 29 30  4  0  0  0  0
 30 31  4  0  0  0  0
 26 31  4  0  0  0  0
 12 32  4  0  0  0  0
 32 33  4  0  0  0  0
  9 33  4  0  0  0  0
  8 34  4  0  0  0  0
  4 34  4  0  0  0  0
M  CHG  2   2   1   3  -1
M  END
>  <CdId>
111

>  <Mol Weight>
478.52

>  <Formula>
C24H22N4O5S

>  <Molecule ChEMBL ID>
CHEMBL121522

>  <Molecule Max Phase>
None

>  <Molecular Weight>
478.53

>  <#RO5 Violations>
0

>  <AlogP>
4.03

>  <Compound Key>
19

>  <Standard Type>
IC50

>  <Standard Relation>
'>'

>  <Standard Value>
250000.0

>  <Standard Units>
nM

$$$$

  Mrv2114 03112311372D          

 28 31  0  0  1  0            999 V2000
    3.5724   -1.2375    0.0000 C   0  0  0  0  0  0  0  0  0  0  0  0
    2.8579   -1.6500    0.0000 C   0  0  0  0  0  0  0  0  0  0  0  0
    2.8579   -2.4750    0.0000 C   0  0  0  0  0  0  0  0  0  0  0  0
    2.1434   -2.8875    0.0000 C   0  0  0  0  0  0  0  0  0  0  0  0
    1.4289   -2.4750    0.0000 C   0  0  0  0  0  0  0  0  0  0  0  0
    0.7145   -2.8875    0.0000 C   0  0  0  0  0  0  0  0  0  0  0  0
    0.7145   -3.7125    0.0000 N   0  0  0  0  0  0  0  0  0  0  0  0
    1.3819   -4.1974    0.0000 C   0  0  0  0  0  0  0  0  0  0  0  0
    1.1270   -4.9820    0.0000 C   0  0  0  0  0  0  0  0  0  0  0  0
    0.3020   -4.9820    0.0000 C   0  0  1  0  0  0  0  0  0  0  0  0
   -0.1830   -5.6495    0.0000 N   0  0  0  0  0  0  0  0  0  0  0  0
    0.1526   -6.4032    0.0000 C   0  0  0  0  0  0  0  0  0  0  0  0
   -0.3323   -7.0706    0.0000 C   0  0  0  0  0  0  0  0  0  0  0  0
   -1.1528   -6.9844    0.0000 C   0  0  1  0  0  0  0  0  0  0  0  0
   -1.6377   -7.6518    0.0000 C   0  0  0  0  0  0  0  0  0  0  0  0
   -1.3022   -8.4055    0.0000 C   0  0  0  0  0  0  0  0  0  0  0  0
   -1.7871   -9.0729    0.0000 C   0  0  0  0  0  0  0  0  0  0  0  0
   -2.6076   -8.9867    0.0000 C   0  0  0  0  0  0  0  0  0  0  0  0
   -3.0925   -9.6541    0.0000 O   0  0  0  0  0  0  0  0  0  0  0  0
   -2.9431   -8.2330    0.0000 C   0  0  0  0  0  0  0  0  0  0  0  0
   -2.4582   -7.5656    0.0000 C   0  0  0  0  0  0  0  0  0  0  0  0
   -1.4884   -6.2307    0.0000 C   0  0  2  0  0  0  0  0  0  0  0  0
   -2.3088   -6.1445    0.0000 F   0  0  0  0  0  0  0  0  0  0  0  0
   -1.0034   -5.5632    0.0000 C   0  0  0  0  0  0  0  0  0  0  0  0
    0.0470   -4.1974    0.0000 C   0  0  0  0  0  0  0  0  0  0  0  0
   -0.7376   -3.9425    0.0000 O   0  0  0  0  0  0  0  0  0  0  0  0
    1.4289   -1.6500    0.0000 C   0  0  0  0  0  0  0  0  0  0  0  0
    2.1434   -1.2375    0.0000 C   0  0  0  0  0  0  0  0  0  0  0  0
  1  2  1  0  0  0  0
  2  3  4  0  0  0  0
  3  4  4  0  0  0  0
  4  5  4  0  0  0  0
  5  6  1  0  0  0  0
  6  7  1  0  0  0  0
  7  8  1  0  0  0  0
  8  9  1  0  0  0  0
 10  9  1  0  0  0  0
 10 11  1  1  0  0  0
 11 12  1  0  0  0  0
 12 13  1  0  0  0  0
 14 13  1  0  0  0  0
 14 15  1  1  0  0  0
 15 16  4  0  0  0  0
 16 17  4  0  0  0  0
 17 18  4  0  0  0  0
 18 19  1  0  0  0  0
 18 20  4  0  0  0  0
 20 21  4  0  0  0  0
 15 21  4  0  0  0  0
 14 22  1  0  0  0  0
 22 23  1  6  0  0  0
 22 24  1  0  0  0  0
 11 24  1  0  0  0  0
 10 25  1  0  0  0  0
  7 25  1  0  0  0  0
 25 26  2  0  0  0  0
  5 27  4  0  0  0  0
 27 28  4  0  0  0  0
  2 28  4  0  0  0  0
M  END
>  <CdId>
112

>  <Mol Weight>
382.479

>  <Formula>
C23H27FN2O2

>  <Molecule ChEMBL ID>
CHEMBL3892956

>  <Molecule Max Phase>
None

>  <Molecular Weight>
382.48

>  <#RO5 Violations>
0

>  <AlogP>
3.63

>  <Compound Key>
5; BMS-986169

>  <Standard Type>
IC50

>  <Standard Relation>
'>'

>  <Standard Value>
18000.0

>  <Standard Units>
nM

$$$$

  Mrv2114 03112311372D          

 30 33  0  0  1  0            999 V2000
    0.7145   -1.2375    0.0000 C   0  0  0  0  0  0  0  0  0  0  0  0
    0.7145   -0.4125    0.0000 C   0  0  2  0  0  0  0  0  0  0  0  0
    0.0000    0.0000    0.0000 C   0  0  0  0  0  0  0  0  0  0  0  0
   -0.7846   -0.2549    0.0000 N   0  0  0  0  0  0  0  0  0  0  0  0
   -1.2695    0.4125    0.0000 C   0  0  0  0  0  0  0  0  0  0  0  0
   -0.7846    1.0799    0.0000 N   0  0  0  0  0  0  0  0  0  0  0  0
   -1.0396    1.8646    0.0000 C   0  0  0  0  0  0  0  0  0  0  0  0
   -1.8465    2.0361    0.0000 C   0  0  0  0  0  0  0  0  0  0  0  0
   -2.1015    2.8207    0.0000 C   0  0  0  0  0  0  0  0  0  0  0  0
   -1.5494    3.4338    0.0000 C   0  0  0  0  0  0  0  0  0  0  0  0
   -1.8044    4.2184    0.0000 F   0  0  0  0  0  0  0  0  0  0  0  0
   -0.7425    3.2623    0.0000 C   0  0  0  0  0  0  0  0  0  0  0  0
   -0.4875    2.4777    0.0000 C   0  0  0  0  0  0  0  0  0  0  0  0
    0.0000    0.8250    0.0000 C   0  0  0  0  0  0  0  0  0  0  0  0
    0.7145    1.2375    0.0000 C   0  0  0  0  0  0  0  0  0  0  0  0
    1.4289    0.8250    0.0000 C   0  0  0  0  0  0  0  0  0  0  0  0
    1.4289    0.0000    0.0000 N   0  0  0  0  0  0  0  0  0  0  0  0
    2.1434   -0.4125    0.0000 C   0  0  0  0  0  0  0  0  0  0  0  0
    2.1434   -1.2375    0.0000 O   0  0  0  0  0  0  0  0  0  0  0  0
    2.8579    0.0000    0.0000 C   0  0  0  0  0  0  0  0  0  0  0  0
    2.8579    0.8250    0.0000 C   0  0  0  0  0  0  0  0  0  0  0  0
    3.5724    1.2375    0.0000 C   0  0  0  0  0  0  0  0  0  0  0  0
    4.2868    0.8250    0.0000 C   0  0  0  0  0  0  0  0  0  0  0  0
    4.2868    0.0000    0.0000 C   0  0  0  0  0  0  0  0  0  0  0  0
    5.0013   -0.4125    0.0000 C   0  0  0  0  0  0  0  0  0  0  0  0
    5.7158   -0.8250    0.0000 F   0  0  0  0  0  0  0  0  0  0  0  0
    4.5888   -1.1270    0.0000 F   0  0  0  0  0  0  0  0  0  0  0  0
    5.4138    0.3020    0.0000 F   0  0  0  0  0  0  0  0  0  0  0  0
    3.5724   -0.4125    0.0000 C   0  0  0  0  0  0  0  0  0  0  0  0
    3.5724   -1.2375    0.0000 Cl  0  0  0  0  0  0  0  0  0  0  0  0
  2  1  1  6  0  0  0
  2  3  1  0  0  0  0
  3  4  4  0  0  0  0
  4  5  4  0  0  0  0
  5  6  4  0  0  0  0
  6  7  1  0  0  0  0
  7  8  4  0  0  0  0
  8  9  4  0  0  0  0
  9 10  4  0  0  0  0
 10 11  1  0  0  0  0
 10 12  4  0  0  0  0
 12 13  4  0  0  0  0
  7 13  4  0  0  0  0
  6 14  4  0  0  0  0
  3 14  4  0  0  0  0
 14 15  1  0  0  0  0
 15 16  1  0  0  0  0
 16 17  1  0  0  0  0
  2 17  1  0  0  0  0
 17 18  1  0  0  0  0
 18 19  2  0  0  0  0
 18 20  1  0  0  0  0
 20 21  4  0  0  0  0
 21 22  4  0  0  0  0
 22 23  4  0  0  0  0
 23 24  4  0  0  0  0
 24 25  1  0  0  0  0
 25 26  1  0  0  0  0
 25 27  1  0  0  0  0
 25 28  1  0  0  0  0
 24 29  4  0  0  0  0
 20 29  4  0  0  0  0
 29 30  1  0  0  0  0
M  END
>  <CdId>
113

>  <Mol Weight>
437.82

>  <Formula>
C21H16ClF4N3O

>  <Molecule ChEMBL ID>
CHEMBL3904907

>  <Molecule Max Phase>
None

>  <Molecular Weight>
437.82

>  <#RO5 Violations>
1

>  <AlogP>
5.44

>  <Compound Key>
28

>  <Standard Type>
IC50

>  <Standard Relation>
'>'

>  <Standard Value>
10000.0

>  <Standard Units>
nM

$$$$

  Mrv2114 03112311372D          

 39 42  0  0  0  0            999 V2000
    4.3460   -4.6221    0.0000 O   0  0  0  0  0  0  0  0  0  0  0  0
    5.0605   -5.0346    0.0000 C   0  0  0  0  0  0  0  0  0  0  0  0
    5.7749   -4.6221    0.0000 O   0  0  0  0  0  0  0  0  0  0  0  0
    5.0605   -5.8596    0.0000 C   0  0  0  0  0  0  0  0  0  0  0  0
    5.7749   -6.2721    0.0000 C   0  0  0  0  0  0  0  0  0  0  0  0
    6.4894   -5.8596    0.0000 N   0  0  0  0  0  0  0  0  0  0  0  0
    6.4894   -5.0346    0.0000 C   0  0  0  0  0  0  0  0  0  0  0  0
    6.1539   -4.2809    0.0000 O   0  0  0  0  0  0  0  0  0  0  0  0
    7.2039   -4.6221    0.0000 C   0  0  0  0  0  0  0  0  0  0  0  0
    7.2039   -3.7971    0.0000 C   0  0  0  0  0  0  0  0  0  0  0  0
    7.9184   -3.3846    0.0000 C   0  0  0  0  0  0  0  0  0  0  0  0
    8.6328   -3.7971    0.0000 C   0  0  0  0  0  0  0  0  0  0  0  0
    9.3473   -3.3846    0.0000 C   0  0  0  0  0  0  0  0  0  0  0  0
    9.3473   -2.5596    0.0000 N   0  0  0  0  0  0  0  0  0  0  0  0
    8.6799   -2.0747    0.0000 N   0  0  0  0  0  0  0  0  0  0  0  0
    8.9348   -1.2901    0.0000 C   0  0  0  0  0  0  0  0  0  0  0  0
    8.4499   -0.6226    0.0000 C   0  0  0  0  0  0  0  0  0  0  0  0
    7.6294   -0.7089    0.0000 C   0  0  0  0  0  0  0  0  0  0  0  0
    7.1445   -0.0414    0.0000 C   0  0  0  0  0  0  0  0  0  0  0  0
    6.3240   -0.1277    0.0000 Cl  0  0  0  0  0  0  0  0  0  0  0  0
    7.4800    0.7122    0.0000 C   0  0  0  0  0  0  0  0  0  0  0  0
    8.3005    0.7985    0.0000 C   0  0  0  0  0  0  0  0  0  0  0  0
    8.6361    1.5522    0.0000 Cl  0  0  0  0  0  0  0  0  0  0  0  0
    8.7854    0.1310    0.0000 C   0  0  0  0  0  0  0  0  0  0  0  0
    9.7598   -1.2901    0.0000 C   0  0  0  0  0  0  0  0  0  0  0  0
   10.0147   -2.0747    0.0000 C   0  0  0  0  0  0  0  0  0  0  0  0
   10.7994   -2.3296    0.0000 C   0  0  0  0  0  0  0  0  0  0  0  0
   11.4125   -1.7776    0.0000 C   0  0  0  0  0  0  0  0  0  0  0  0
   12.1971   -2.0325    0.0000 C   0  0  0  0  0  0  0  0  0  0  0  0
   12.3686   -2.8395    0.0000 C   0  0  0  0  0  0  0  0  0  0  0  0
   13.1532   -3.0945    0.0000 O   0  0  0  0  0  0  0  0  0  0  0  0
   13.7663   -2.5424    0.0000 C   0  0  0  0  0  0  0  0  0  0  0  0
   14.3794   -1.9904    0.0000 F   0  0  0  0  0  0  0  0  0  0  0  0
   14.3184   -3.1555    0.0000 F   0  0  0  0  0  0  0  0  0  0  0  0
   13.2143   -1.9293    0.0000 F   0  0  0  0  0  0  0  0  0  0  0  0
   11.7555   -3.3915    0.0000 C   0  0  0  0  0  0  0  0  0  0  0  0
   10.9709   -3.1366    0.0000 C   0  0  0  0  0  0  0  0  0  0  0  0
    8.6328   -4.6221    0.0000 C   0  0  0  0  0  0  0  0  0  0  0  0
    7.9184   -5.0346    0.0000 C   0  0  0  0  0  0  0  0  0  0  0  0
  1  2  2  0  0  0  0
  2  3  1  0  0  0  0
  2  4  1  0  0  0  0
  4  5  1  0  0  0  0
  5  6  1  0  0  0  0
  6  7  1  0  0  0  0
  7  8  2  0  0  0  0
  7  9  1  0  0  0  0
  9 10  4  0  0  0  0
 10 11  4  0  0  0  0
 11 12  4  0  0  0  0
 12 13  1  0  0  0  0
 13 14  1  0  0  0  0
 14 15  4  0  0  0  0
 15 16  4  0  0  0  0
 16 17  1  0  0  0  0
 17 18  4  0  0  0  0
 18 19  4  0  0  0  0
 19 20  1  0  0  0  0
 19 21  4  0  0  0  0
 21 22  4  0  0  0  0
 22 23  1  0  0  0  0
 22 24  4  0  0  0  0
 17 24  4  0  0  0  0
 16 25  4  0  0  0  0
 25 26  4  0  0  0  0
 14 26  4  0  0  0  0
 26 27  1  0  0  0  0
 27 28  4  0  0  0  0
 28 29  4  0  0  0  0
 29 30  4  0  0  0  0
 30 31  1  0  0  0  0
 31 32  1  0  0  0  0
 32 33  1  0  0  0  0
 32 34  1  0  0  0  0
 32 35  1  0  0  0  0
 30 36  4  0  0  0  0
 36 37  4  0  0  0  0
 27 37  4  0  0  0  0
 12 38  4  0  0  0  0
 38 39  4  0  0  0  0
  9 39  4  0  0  0  0
M  END
>  <CdId>
114

>  <Mol Weight>
578.37

>  <Formula>
C27H20Cl2F3N3O4

>  <Molecule ChEMBL ID>
CHEMBL1644183

>  <Molecule Max Phase>
None

>  <Molecular Weight>
578.37

>  <#RO5 Violations>
2

>  <AlogP>
6.68

>  <Compound Key>
26

>  <Standard Type>
IC50

>  <Standard Relation>
'='

>  <Standard Value>
19000.0

>  <Standard Units>
nM

$$$$

  Mrv2114 03112311372D          

 26 29  0  0  0  0            999 V2000
    4.0668    3.1729    0.0000 O   0  0  0  0  0  0  0  0  0  0  0  0
    4.0668    2.3479    0.0000 C   0  0  0  0  0  0  0  0  0  0  0  0
    4.7812    1.9354    0.0000 C   0  0  0  0  0  0  0  0  0  0  0  0
    5.4957    2.3479    0.0000 C   0  0  0  0  0  0  0  0  0  0  0  0
    6.2102    1.9354    0.0000 C   0  0  0  0  0  0  0  0  0  0  0  0
    6.9246    2.3479    0.0000 F   0  0  0  0  0  0  0  0  0  0  0  0
    6.2102    1.1104    0.0000 C   0  0  0  0  0  0  0  0  0  0  0  0
    5.4957    0.6979    0.0000 C   0  0  0  0  0  0  0  0  0  0  0  0
    5.4957   -0.1271    0.0000 Cl  0  0  0  0  0  0  0  0  0  0  0  0
    4.7812    1.1104    0.0000 C   0  0  0  0  0  0  0  0  0  0  0  0
    3.3523    1.9354    0.0000 N   0  0  0  0  0  0  0  0  0  0  0  0
    3.3523    1.1104    0.0000 C   0  0  0  0  0  0  0  0  0  0  0  0
    2.6378    0.6979    0.0000 C   0  0  0  0  0  0  0  0  0  0  0  0
    1.9233    1.1104    0.0000 N   0  0  0  0  0  0  0  0  0  0  0  0
    1.1387    0.8555    0.0000 N   0  0  0  0  0  0  0  0  0  0  0  0
    0.6538    1.5229    0.0000 C   0  0  0  0  0  0  0  0  0  0  0  0
   -0.1712    1.5229    0.0000 C   0  0  0  0  0  0  0  0  0  0  0  0
   -0.5837    0.8085    0.0000 C   0  0  0  0  0  0  0  0  0  0  0  0
   -1.4087    0.8085    0.0000 C   0  0  0  0  0  0  0  0  0  0  0  0
   -1.8212    1.5229    0.0000 C   0  0  0  0  0  0  0  0  0  0  0  0
   -2.6462    1.5229    0.0000 F   0  0  0  0  0  0  0  0  0  0  0  0
   -1.4087    2.2374    0.0000 C   0  0  0  0  0  0  0  0  0  0  0  0
   -0.5837    2.2374    0.0000 N   0  0  0  0  0  0  0  0  0  0  0  0
    1.1387    2.1904    0.0000 C   0  0  0  0  0  0  0  0  0  0  0  0
    1.9233    1.9354    0.0000 C   0  0  0  0  0  0  0  0  0  0  0  0
    2.6378    2.3479    0.0000 C   0  0  0  0  0  0  0  0  0  0  0  0
  1  2  2  0  0  0  0
  2  3  1  0  0  0  0
  3  4  4  0  0  0  0
  4  5  4  0  0  0  0
  5  6  1  0  0  0  0
  5  7  4  0  0  0  0
  7  8  4  0  0  0  0
  8  9  1  0  0  0  0
  8 10  4  0  0  0  0
  3 10  4  0  0  0  0
  2 11  1  0  0  0  0
 11 12  1  0  0  0  0
 12 13  1  0  0  0  0
 13 14  1  0  0  0  0
 14 15  4  0  0  0  0
 15 16  4  0  0  0  0
 16 17  1  0  0  0  0
 17 18  4  0  0  0  0
 18 19  4  0  0  0  0
 19 20  4  0  0  0  0
 20 21  1  0  0  0  0
 20 22  4  0  0  0  0
 22 23  4  0  0  0  0
 17 23  4  0  0  0  0
 16 24  4  0  0  0  0
 24 25  4  0  0  0  0
 14 25  4  0  0  0  0
 25 26  1  0  0  0  0
 11 26  1  0  0  0  0
M  END
>  <CdId>
115

>  <Mol Weight>
374.78

>  <Formula>
C18H13ClF2N4O

>  <Molecule ChEMBL ID>
CHEMBL4098822

>  <Molecule Max Phase>
None

>  <Molecular Weight>
374.78

>  <#RO5 Violations>
0

>  <AlogP>
3.53

>  <Compound Key>
32

>  <Standard Type>
IC50

>  <Standard Relation>
'>'

>  <Standard Value>
40000.0

>  <Standard Units>
nM

$$$$

  Mrv2114 03112311372D          

 26 29  0  0  0  0            999 V2000
    6.0157    1.4535    0.0000 O   0  0  0  0  0  0  0  0  0  0  0  0
    5.3918    1.9934    0.0000 C   0  0  0  0  0  0  0  0  0  0  0  0
    4.6124    1.7230    0.0000 C   0  0  0  0  0  0  0  0  0  0  0  0
    4.4568    0.9128    0.0000 C   0  0  0  0  0  0  0  0  0  0  0  0
    3.6774    0.6425    0.0000 C   0  0  0  0  0  0  0  0  0  0  0  0
    3.0005    1.1142    0.0000 C   0  0  0  0  0  0  0  0  0  0  0  0
    2.3427    0.6162    0.0000 N   0  0  0  0  0  0  0  0  0  0  0  0
    2.6131   -0.1633    0.0000 C   0  0  0  0  0  0  0  0  0  0  0  0
    3.4379   -0.1470    0.0000 N   0  0  0  0  0  0  0  0  0  0  0  0
    1.9554   -0.6613    0.0000 S   0  0  0  0  0  0  0  0  0  0  0  0
    1.2785   -0.1896    0.0000 C   0  0  0  0  0  0  0  0  0  0  0  0
    0.4750   -0.3770    0.0000 C   0  0  0  0  0  0  0  0  0  0  0  0
   -0.0890    0.2251    0.0000 C   0  0  0  0  0  0  0  0  0  0  0  0
    0.1505    1.0146    0.0000 C   0  0  0  0  0  0  0  0  0  0  0  0
    0.9539    1.2020    0.0000 C   0  0  0  0  0  0  0  0  0  0  0  0
    1.5179    0.5999    0.0000 C   0  0  0  0  0  0  0  0  0  0  0  0
    5.5474    2.8036    0.0000 N   0  0  0  0  0  0  0  0  0  0  0  0
    6.3269    3.0739    0.0000 C   0  0  0  0  0  0  0  0  0  0  0  0
    6.9507    2.5341    0.0000 C   0  0  0  0  0  0  0  0  0  0  0  0
    7.7302    2.8045    0.0000 C   0  0  0  0  0  0  0  0  0  0  0  0
    7.8858    3.6147    0.0000 C   0  0  0  0  0  0  0  0  0  0  0  0
    7.2619    4.1545    0.0000 C   0  0  0  0  0  0  0  0  0  0  0  0
    6.4825    3.8841    0.0000 C   0  0  0  0  0  0  0  0  0  0  0  0
    5.8586    4.4240    0.0000 C   0  0  0  0  0  0  0  0  0  0  0  0
    5.0792    4.1536    0.0000 O   0  0  0  0  0  0  0  0  0  0  0  0
    6.0142    5.2342    0.0000 O   0  0  0  0  0  0  0  0  0  0  0  0
  1  2  2  0  0  0  0
  2  3  1  0  0  0  0
  3  4  1  0  0  0  0
  4  5  1  0  0  0  0
  5  6  4  0  0  0  0
  6  7  4  0  0  0  0
  7  8  4  0  0  0  0
  8  9  4  0  0  0  0
  5  9  4  0  0  0  0
  8 10  4  0  0  0  0
 10 11  4  0  0  0  0
 11 12  4  0  0  0  0
 12 13  4  0  0  0  0
 13 14  4  0  0  0  0
 14 15  4  0  0  0  0
 15 16  4  0  0  0  0
 11 16  4  0  0  0  0
  7 16  4  0  0  0  0
  2 17  1  0  0  0  0
 17 18  1  0  0  0  0
 18 19  4  0  0  0  0
 19 20  4  0  0  0  0
 20 21  4  0  0  0  0
 21 22  4  0  0  0  0
 22 23  4  0  0  0  0
 18 23  4  0  0  0  0
 23 24  1  0  0  0  0
 24 25  2  0  0  0  0
 24 26  1  0  0  0  0
M  END
>  <CdId>
116

>  <Mol Weight>
365.41

>  <Formula>
C19H15N3O3S

>  <Molecule ChEMBL ID>
CHEMBL520620

>  <Molecule Max Phase>
None

>  <Molecular Weight>
365.41

>  <#RO5 Violations>
0

>  <AlogP>
3.82

>  <Compound Key>
2l

>  <Standard Type>
IC50

$$$$

  Mrv2114 03112311372D          

 28 31  0  0  0  0            999 V2000
    5.4896   -1.6384    0.0000 O   0  0  0  0  0  0  0  0  0  0  0  0
    5.6358   -0.8265    0.0000 C   0  0  0  0  0  0  0  0  0  0  0  0
    5.0058   -0.2939    0.0000 C   0  0  0  0  0  0  0  0  0  0  0  0
    4.2295   -0.5732    0.0000 C   0  0  0  0  0  0  0  0  0  0  0  0
    3.5995   -0.0406    0.0000 C   0  0  0  0  0  0  0  0  0  0  0  0
    3.6601    0.7822    0.0000 N   0  0  0  0  0  0  0  0  0  0  0  0
    2.8963    1.0941    0.0000 O   0  0  0  0  0  0  0  0  0  0  0  0
    2.3637    0.4640    0.0000 C   0  0  0  0  0  0  0  0  0  0  0  0
    2.7983   -0.2372    0.0000 C   0  0  0  0  0  0  0  0  0  0  0  0
    2.4083   -0.9642    0.0000 C   0  0  0  0  0  0  0  0  0  0  0  0
    1.5837   -0.9900    0.0000 C   0  0  0  0  0  0  0  0  0  0  0  0
    1.1491   -0.2887    0.0000 C   0  0  0  0  0  0  0  0  0  0  0  0
    0.3245   -0.3145    0.0000 C   0  0  0  0  0  0  0  0  0  0  0  0
   -0.1101    0.3867    0.0000 C   0  0  0  0  0  0  0  0  0  0  0  0
   -0.9347    0.3610    0.0000 O   0  0  0  0  0  0  0  0  0  0  0  0
    0.2799    1.1137    0.0000 C   0  0  0  0  0  0  0  0  0  0  0  0
    1.1045    1.1395    0.0000 C   0  0  0  0  0  0  0  0  0  0  0  0
    1.5391    0.4383    0.0000 C   0  0  0  0  0  0  0  0  0  0  0  0
    6.4121   -0.5472    0.0000 N   0  0  0  0  0  0  0  0  0  0  0  0
    7.0422   -1.0798    0.0000 C   0  0  0  0  0  0  0  0  0  0  0  0
    6.8959   -1.8917    0.0000 C   0  0  0  0  0  0  0  0  0  0  0  0
    7.5259   -2.4243    0.0000 C   0  0  0  0  0  0  0  0  0  0  0  0
    8.3022   -2.1450    0.0000 C   0  0  0  0  0  0  0  0  0  0  0  0
    8.4485   -1.3331    0.0000 C   0  0  0  0  0  0  0  0  0  0  0  0
    7.8184   -0.8005    0.0000 C   0  0  0  0  0  0  0  0  0  0  0  0
    7.9647    0.0115    0.0000 C   0  0  0  0  0  0  0  0  0  0  0  0
    7.3346    0.5441    0.0000 O   0  0  0  0  0  0  0  0  0  0  0  0
    8.7410    0.2908    0.0000 O   0  0  0  0  0  0  0  0  0  0  0  0
  1  2  2  0  0  0  0
  2  3  1  0  0  0  0
  3  4  1  0  0  0  0
  4  5  1  0  0  0  0
  5  6  4  0  0  0  0
  6  7  4  0  0  0  0
  7  8  4  0  0  0  0
  8  9  4  0  0  0  0
  5  9  4  0  0  0  0
  9 10  4  0  0  0  0
 10 11  4  0  0  0  0
 11 12  4  0  0  0  0
 12 13  4  0  0  0  0
 13 14  4  0  0  0  0
 14 15  1  0  0  0  0
 14 16  4  0  0  0  0
 16 17  4  0  0  0  0
 17 18  4  0  0  0  0
 12 18  4  0  0  0  0
  8 18  4  0  0  0  0
  2 19  1  0  0  0  0
 19 20  1  0  0  0  0
 20 21  4  0  0  0  0
 21 22  4  0  0  0  0
 22 23  4  0  0  0  0
 23 24  4  0  0  0  0
 24 25  4  0  0  0  0
 20 25  4  0  0  0  0
 25 26  1  0  0  0  0
 26 27  2  0  0  0  0
 26 28  1  0  0  0  0
M  END
>  <CdId>
117

>  <Mol Weight>
376.368

>  <Formula>
C21H16N2O5

>  <Molecule ChEMBL ID>
CHEMBL520299

>  <Molecule Max Phase>
None

>  <Molecular Weight>
376.37

>  <#RO5 Violations>
0

>  <AlogP>
3.96

>  <Compound Key>
2f

>  <Standard Type>
IC50

$$$$

  Mrv2114 03112311372D          

 39 43  0  0  0  0            999 V2000
   -5.7158    3.3000    0.0000 C   0  0  0  0  0  0  0  0  0  0  0  0
   -5.0013    3.7125    0.0000 O   0  0  0  0  0  0  0  0  0  0  0  0
   -4.2868    3.3000    0.0000 C   0  0  0  0  0  0  0  0  0  0  0  0
   -3.5724    3.7125    0.0000 C   0  0  0  0  0  0  0  0  0  0  0  0
   -2.8579    3.3000    0.0000 C   0  0  0  0  0  0  0  0  0  0  0  0
   -2.8579    2.4750    0.0000 C   0  0  0  0  0  0  0  0  0  0  0  0
   -2.1434    2.0625    0.0000 C   0  0  0  0  0  0  0  0  0  0  0  0
   -1.4289    2.4750    0.0000 C   0  0  0  0  0  0  0  0  0  0  0  0
   -0.7145    2.0625    0.0000 C   0  0  0  0  0  0  0  0  0  0  0  0
   -0.7145    1.2375    0.0000 C   0  0  0  0  0  0  0  0  0  0  0  0
    0.0000    0.8250    0.0000 O   0  0  0  0  0  0  0  0  0  0  0  0
    0.0000   -0.0000    0.0000 C   0  0  0  0  0  0  0  0  0  0  0  0
   -0.7145   -0.4125    0.0000 C   0  0  0  0  0  0  0  0  0  0  0  0
   -0.7145   -1.2375    0.0000 C   0  0  0  0  0  0  0  0  0  0  0  0
    0.0000   -1.6500    0.0000 C   0  0  0  0  0  0  0  0  0  0  0  0
    0.7145   -1.2375    0.0000 C   0  0  0  0  0  0  0  0  0  0  0  0
    0.7145   -0.4125    0.0000 C   0  0  0  0  0  0  0  0  0  0  0  0
    1.4289   -0.0000    0.0000 C   0  0  0  0  0  0  0  0  0  0  0  0
    2.1434   -0.4125    0.0000 C   0  0  0  0  0  0  0  0  0  0  0  0
    2.1434   -1.2375    0.0000 C   0  0  0  0  0  0  0  0  0  0  0  0
    1.4289   -1.6500    0.0000 C   0  0  0  0  0  0  0  0  0  0  0  0
   -1.4289    0.8250    0.0000 C   0  0  0  0  0  0  0  0  0  0  0  0
   -1.4289   -0.0000    0.0000 N   0  0  0  0  0  0  0  0  0  0  0  0
   -2.1434   -0.4125    0.0000 C   0  0  0  0  0  0  0  0  0  0  0  0
   -2.8579   -0.0000    0.0000 O   0  0  0  0  0  0  0  0  0  0  0  0
   -2.1434   -1.2375    0.0000 N   0  0  0  0  0  0  0  0  0  0  0  0
   -2.8579   -1.6500    0.0000 C   0  0  0  0  0  0  0  0  0  0  0  0
   -2.8579   -2.4750    0.0000 C   0  0  0  0  0  0  0  0  0  0  0  0
   -3.5724   -2.8875    0.0000 C   0  0  0  0  0  0  0  0  0  0  0  0
   -4.2868   -2.4750    0.0000 C   0  0  0  0  0  0  0  0  0  0  0  0
   -4.2868   -1.6500    0.0000 C   0  0  0  0  0  0  0  0  0  0  0  0
   -3.5724   -1.2375    0.0000 C   0  0  0  0  0  0  0  0  0  0  0  0
   -3.5724   -0.4125    0.0000 C   0  0  0  0  0  0  0  0  0  0  0  0
   -2.1434    1.2375    0.0000 C   0  0  0  0  0  0  0  0  0  0  0  0
   -3.5724    2.0625    0.0000 C   0  0  0  0  0  0  0  0  0  0  0  0
   -4.2868    2.4750    0.0000 C   0  0  0  0  0  0  0  0  0  0  0  0
   -5.0013    2.0625    0.0000 C   0  0  0  0  0  0  0  0  0  0  0  0
   -5.7158    2.4750    0.0000 O   0  0  0  0  0  0  0  0  0  0  0  0
   -5.0013    1.2375    0.0000 O   0  0  0  0  0  0  0  0  0  0  0  0
  1  2  1  0  0  0  0
  2  3  1  0  0  0  0
  3  4  4  0  0  0  0
  4  5  4  0  0  0  0
  5  6  4  0  0  0  0
  6  7  1  0  0  0  0
  7  8  4  0  0  0  0
  8  9  4  0  0  0  0
  9 10  4  0  0  0  0
 10 11  1  0  0  0  0
 11 12  1  0  0  0  0
 12 13  4  0  0  0  0
 13 14  4  0  0  0  0
 14 15  4  0  0  0  0
 15 16  4  0  0  0  0
 16 17  4  0  0  0  0
 12 17  4  0  0  0  0
 17 18  1  0  0  0  0
 18 19  1  0  0  0  0
 19 20  1  0  0  0  0
 20 21  1  0  0  0  0
 16 21  1  0  0  0  0
 10 22  4  0  0  0  0
 22 23  1  0  0  0  0
 23 24  1  0  0  0  0
 24 25  2  0  0  0  0
 24 26  1  0  0  0  0
 26 27  1  0  0  0  0
 27 28  4  0  0  0  0
 28 29  4  0  0  0  0
 29 30  4  0  0  0  0
 30 31  4  0  0  0  0
 31 32  4  0  0  0  0
 27 32  4  0  0  0  0
 32 33  1  0  0  0  0
 22 34  4  0  0  0  0
  7 34  4  0  0  0  0
  6 35  4  0  0  0  0
 35 36  4  0  0  0  0
  3 36  4  0  0  0  0
 36 37  1  0  0  0  0
 37 38  2  0  0  0  0
 37 39  1  0  0  0  0
M  END
>  <CdId>
118

>  <Mol Weight>
522.601

>  <Formula>
C32H30N2O5

>  <Molecule ChEMBL ID>
CHEMBL4082553

>  <Molecule Max Phase>
None

>  <Molecular Weight>
522.6

>  <#RO5 Violations>
2

>  <AlogP>
7.68

>  <Compound Key>
11c

>  <Standard Type>
IC50

>  <Standard Relation>
'>'

>  <Standard Value>
3000.0

>  <Standard Units>
nM

$$$$

  Mrv2114 03112311372D          

 37 43  0  0  1  0            999 V2000
    7.6956   -5.2590    0.0000 C   0  0  0  0  0  0  0  0  0  0  0  0
    7.4407   -4.4744    0.0000 N   0  0  0  0  0  0  0  0  0  0  0  0
    6.6561   -4.2195    0.0000 C   0  0  0  0  0  0  0  0  0  0  0  0
    6.6561   -3.3945    0.0000 C   0  0  0  0  0  0  0  0  0  0  0  0
    5.9886   -2.9095    0.0000 C   0  0  0  0  0  0  0  0  0  0  0  0
    5.2350   -3.2451    0.0000 C   0  0  0  0  0  0  0  0  0  0  0  0
    4.5675   -2.7602    0.0000 C   0  0  0  0  0  0  0  0  0  0  0  0
    4.6538   -1.9397    0.0000 C   0  0  0  0  0  0  0  0  0  0  0  0
    3.9863   -1.4548    0.0000 C   0  0  0  0  0  0  0  0  0  0  0  0
    3.2327   -1.7903    0.0000 C   0  0  0  0  0  0  0  0  0  0  0  0
    2.5652   -1.3054    0.0000 C   0  0  0  0  0  0  0  0  0  0  0  0
    2.6515   -0.4849    0.0000 C   0  0  0  0  0  0  0  0  0  0  0  0
    1.9840   -0.0000    0.0000 C   0  0  0  0  0  0  0  0  0  0  0  0
    1.1994   -0.2549    0.0000 N   0  0  0  0  0  0  0  0  0  0  0  0
    0.7145    0.4125    0.0000 C   0  0  0  0  0  0  0  0  0  0  0  0
   -0.0000    0.0000    0.0000 C   0  0  0  0  0  0  0  0  0  0  0  0
    0.0000    0.8250    0.0000 C   0  0  0  0  0  0  0  0  0  0  0  0
    1.1994    1.0799    0.0000 C   0  0  0  0  0  0  0  0  0  0  0  0
    0.9445    1.8646    0.0000 O   0  0  0  0  0  0  0  0  0  0  0  0
    1.9840    0.8250    0.0000 N   0  0  0  0  0  0  0  0  0  0  0  0
    2.6515    1.3099    0.0000 C   0  0  0  0  0  0  0  0  0  0  0  0
    2.5652    2.1304    0.0000 C   0  0  2  0  0  0  0  0  0  0  0  0
    1.8507    2.5429    0.0000 C   0  0  0  0  0  0  0  0  0  0  0  0
    2.0223    3.3499    0.0000 C   0  0  0  0  0  0  0  0  0  0  0  0
    2.8428    3.4361    0.0000 N   0  0  0  0  0  0  0  0  0  0  0  0
    3.2553    4.1506    0.0000 C   0  0  0  0  0  0  0  0  0  0  0  0
    2.8428    4.8651    0.0000 O   0  0  0  0  0  0  0  0  0  0  0  0
    4.0803    4.1506    0.0000 C   0  0  0  0  0  0  0  0  0  0  0  0
    4.7947    4.5631    0.0000 C   0  0  0  0  0  0  0  0  0  0  0  0
    4.7947    3.7381    0.0000 C   0  0  0  0  0  0  0  0  0  0  0  0
    3.1783    2.6824    0.0000 C   0  0  0  0  0  0  0  0  0  0  0  0
    3.4051   -0.1494    0.0000 C   0  0  0  0  0  0  0  0  0  0  0  0
    4.0726   -0.6343    0.0000 C   0  0  0  0  0  0  0  0  0  0  0  0
    5.4074   -1.6041    0.0000 C   0  0  0  0  0  0  0  0  0  0  0  0
    6.0749   -2.0891    0.0000 C   0  0  0  0  0  0  0  0  0  0  0  0
    7.4407   -3.1395    0.0000 C   0  0  0  0  0  0  0  0  0  0  0  0
    7.9256   -3.8070    0.0000 N   0  0  0  0  0  0  0  0  0  0  0  0
  1  2  1  0  0  0  0
  2  3  4  0  0  0  0
  3  4  4  0  0  0  0
  4  5  1  0  0  0  0
  5  6  4  0  0  0  0
  6  7  4  0  0  0  0
  7  8  4  0  0  0  0
  8  9  1  0  0  0  0
  9 10  4  0  0  0  0
 10 11  4  0  0  0  0
 11 12  4  0  0  0  0
 12 13  1  0  0  0  0
 13 14  2  0  0  0  0
 14 15  1  0  0  0  0
 15 16  1  0  0  0  0
 16 17  1  0  0  0  0
 15 17  1  0  0  0  0
 15 18  1  0  0  0  0
 18 19  2  0  0  0  0
 18 20  1  0  0  0  0
 13 20  1  0  0  0  0
 20 21  1  0  0  0  0
 22 21  1  6  0  0  0
 22 23  1  0  0  0  0
 23 24  1  0  0  0  0
 24 25  1  0  0  0  0
 25 26  1  0  0  0  0
 26 27  2  0  0  0  0
 26 28  1  0  0  0  0
 28 29  1  0  0  0  0
 29 30  1  0  0  0  0
 28 30  1  0  0  0  0
 25 31  1  0  0  0  0
 22 31  1  0  0  0  0
 12 32  4  0  0  0  0
 32 33  4  0  0  0  0
  9 33  4  0  0  0  0
  8 34  4  0  0  0  0
 34 35  4  0  0  0  0
  5 35  4  0  0  0  0
  4 36  4  0  0  0  0
 36 37  4  0  0  0  0
  2 37  4  0  0  0  0
M  END
>  <CdId>
119

>  <Mol Weight>
493.611

>  <Formula>
C30H31N5O2

>  <Molecule ChEMBL ID>
CHEMBL4125752

>  <Molecule Max Phase>
None

>  <Molecular Weight>
493.61

>  <#RO5 Violations>
0

>  <AlogP>
4.13

>  <Compound Key>
34

>  <Standard Type>
IC50

>  <Standard Relation>
'>'

>  <Standard Value>
10000.0

>  <Standard Units>
nM

$$$$

  Mrv2114 03112311372D          

 47 53  0  0  0  0            999 V2000
   10.8816    6.4301    0.0000 C   0  0  0  0  0  0  0  0  0  0  0  0
   11.2941    5.7157    0.0000 C   0  0  0  0  0  0  0  0  0  0  0  0
   12.1191    5.7157    0.0000 C   0  0  0  0  0  0  0  0  0  0  0  0
   10.8816    5.0012    0.0000 N   0  0  0  0  0  0  0  0  0  0  0  0
   11.2941    4.2867    0.0000 C   0  0  0  0  0  0  0  0  0  0  0  0
   10.8816    3.5723    0.0000 C   0  0  0  0  0  0  0  0  0  0  0  0
   10.0566    3.5723    0.0000 N   0  0  0  0  0  0  0  0  0  0  0  0
    9.6441    2.8578    0.0000 C   0  0  0  0  0  0  0  0  0  0  0  0
   10.0566    2.1433    0.0000 O   0  0  0  0  0  0  0  0  0  0  0  0
    8.8191    2.8578    0.0000 C   0  0  0  0  0  0  0  0  0  0  0  0
    8.4066    2.1433    0.0000 C   0  0  0  0  0  0  0  0  0  0  0  0
    7.5816    2.1433    0.0000 C   0  0  0  0  0  0  0  0  0  0  0  0
    7.1691    2.8578    0.0000 C   0  0  0  0  0  0  0  0  0  0  0  0
    6.3441    2.8578    0.0000 N   0  0  0  0  0  0  0  0  0  0  0  0
    5.9316    3.5723    0.0000 C   0  0  0  0  0  0  0  0  0  0  0  0
    6.3441    4.2867    0.0000 O   0  0  0  0  0  0  0  0  0  0  0  0
    5.1066    3.5723    0.0000 N   0  0  0  0  0  0  0  0  0  0  0  0
    4.6941    2.8578    0.0000 C   0  0  0  0  0  0  0  0  0  0  0  0
    5.1066    2.1433    0.0000 C   0  0  0  0  0  0  0  0  0  0  0  0
    4.6941    1.4288    0.0000 C   0  0  0  0  0  0  0  0  0  0  0  0
    3.8691    1.4288    0.0000 C   0  0  0  0  0  0  0  0  0  0  0  0
    3.4566    0.7144    0.0000 C   0  0  0  0  0  0  0  0  0  0  0  0
    3.8691   -0.0001    0.0000 N   0  0  0  0  0  0  0  0  0  0  0  0
    3.4566   -0.7146    0.0000 C   0  0  0  0  0  0  0  0  0  0  0  0
    3.8691   -1.4290    0.0000 C   0  0  0  0  0  0  0  0  0  0  0  0
    4.6941   -1.4290    0.0000 C   0  0  0  0  0  0  0  0  0  0  0  0
    5.1066   -2.1435    0.0000 C   0  0  0  0  0  0  0  0  0  0  0  0
    4.6941   -2.8580    0.0000 O   0  0  0  0  0  0  0  0  0  0  0  0
    3.8691   -2.8580    0.0000 C   0  0  0  0  0  0  0  0  0  0  0  0
    3.4566   -2.1435    0.0000 C   0  0  0  0  0  0  0  0  0  0  0  0
    2.6316   -0.7146    0.0000 N   0  0  0  0  0  0  0  0  0  0  0  0
    2.0215   -0.1243    0.0000 C   0  0  0  0  0  0  0  0  0  0  0  0
    1.3941   -0.0001    0.0000 N   0  0  0  0  0  0  0  0  0  0  0  0
    1.1624    0.9268    0.0000 C   0  0  0  0  0  0  0  0  0  0  0  0
    0.5174    0.4124    0.0000 C   0  0  0  0  0  0  0  0  0  0  0  0
    0.5174   -0.4126    0.0000 C   0  0  0  0  0  0  0  0  0  0  0  0
    1.1624   -0.9270    0.0000 C   0  0  0  0  0  0  0  0  0  0  0  0
    1.9667   -0.7434    0.0000 C   0  0  0  0  0  0  0  0  0  0  0  0
    2.3247   -0.0001    0.0000 O   0  0  0  0  0  0  0  0  0  0  0  0
    1.9667    0.7432    0.0000 C   0  0  0  0  0  0  0  0  0  0  0  0
    2.6316    0.7144    0.0000 N   0  0  0  0  0  0  0  0  0  0  0  0
    3.4566    2.1433    0.0000 C   0  0  0  0  0  0  0  0  0  0  0  0
    3.8691    2.8578    0.0000 C   0  0  0  0  0  0  0  0  0  0  0  0
    7.5816    3.5723    0.0000 C   0  0  0  0  0  0  0  0  0  0  0  0
    8.4066    3.5723    0.0000 C   0  0  0  0  0  0  0  0  0  0  0  0
    9.6441    4.2867    0.0000 C   0  0  0  0  0  0  0  0  0  0  0  0
   10.0566    5.0012    0.0000 C   0  0  0  0  0  0  0  0  0  0  0  0
  1  2  1  0  0  0  0
  2  3  1  0  0  0  0
  2  4  1  0  0  0  0
  4  5  1  0  0  0  0
  5  6  1  0  0  0  0
  6  7  1  0  0  0  0
  7  8  1  0  0  0  0
  8  9  2  0  0  0  0
  8 10  1  0  0  0  0
 10 11  4  0  0  0  0
 11 12  4  0  0  0  0
 12 13  4  0  0  0  0
 13 14  1  0  0  0  0
 14 15  1  0  0  0  0
 15 16  2  0  0  0  0
 15 17  1  0  0  0  0
 17 18  1  0  0  0  0
 18 19  4  0  0  0  0
 19 20  4  0  0  0  0
 20 21  4  0  0  0  0
 21 22  1  0  0  0  0
 22 23  4  0  0  0  0
 23 24  4  0  0  0  0
 24 25  1  0  0  0  0
 25 26  1  0  0  0  0
 26 27  1  0  0  0  0
 27 28  1  0  0  0  0
 28 29  1  0  0  0  0
 29 30  1  0  0  0  0
 25 30  1  0  0  0  0
 24 31  4  0  0  0  0
 31 32  4  0  0  0  0
 32 33  1  0  0  0  0
 33 34  1  0  0  0  0
 34 35  1  0  0  0  0
 35 36  1  0  0  0  0
 36 37  1  0  0  0  0
 33 37  1  0  0  0  0
 37 38  1  0  0  0  0
 38 39  1  0  0  0  0
 39 40  1  0  0  0  0
 34 40  1  0  0  0  0
 32 41  4  0  0  0  0
 22 41  4  0  0  0  0
 21 42  4  0  0  0  0
 42 43  4  0  0  0  0
 18 43  4  0  0  0  0
 13 44  4  0  0  0  0
 44 45  4  0  0  0  0
 10 45  4  0  0  0  0
  7 46  1  0  0  0  0
 46 47  1  0  0  0  0
  4 47  1  0  0  0  0
M  END
>  <CdId>
120

>  <Mol Weight>
640.789

>  <Formula>
C35H44N8O4

>  <Molecule ChEMBL ID>
CHEMBL1091356

>  <Molecule Max Phase>
None

>  <Molecular Weight>
640.79

>  <#RO5 Violations>
1

>  <AlogP>
4.61

>  <Compound Key>
27

>  <Standard Type>
IC50

>  <Standard Relation>
'>'

>  <Standard Value>
30000.0

>  <Standard Units>
nM

$$$$

  Mrv2114 03112311372D          

 23 25  0  0  0  0            999 V2000
   -2.1434   -6.1875    0.0000 C   0  0  0  0  0  0  0  0  0  0  0  0
   -2.1434   -5.3625    0.0000 C   0  0  0  0  0  0  0  0  0  0  0  0
   -1.4289   -4.9500    0.0000 N   0  0  0  0  0  0  0  0  0  0  0  0
   -1.4289   -4.1250    0.0000 C   0  0  0  0  0  0  0  0  0  0  0  0
   -0.7145   -3.7125    0.0000 C   0  0  0  0  0  0  0  0  0  0  0  0
   -0.7145   -2.8875    0.0000 C   0  0  0  0  0  0  0  0  0  0  0  0
    0.0000   -2.4750    0.0000 C   0  0  0  0  0  0  0  0  0  0  0  0
    0.7145   -2.8875    0.0000 C   0  0  0  0  0  0  0  0  0  0  0  0
    1.4289   -2.4750    0.0000 N   0  0  0  0  0  0  0  0  0  0  0  0
    1.4289   -1.6500    0.0000 C   0  0  0  0  0  0  0  0  0  0  0  0
    0.7145   -1.2375    0.0000 C   0  0  0  0  0  0  0  0  0  0  0  0
    0.7145   -0.4125    0.0000 C   0  0  0  0  0  0  0  0  0  0  0  0
    1.4289    0.0000    0.0000 N   0  0  0  0  0  0  0  0  0  0  0  0
    2.1434   -0.4125    0.0000 C   0  0  0  0  0  0  0  0  0  0  0  0
    2.8579    0.0000    0.0000 C   0  0  0  0  0  0  0  0  0  0  0  0
    3.5724   -0.4125    0.0000 C   0  0  0  0  0  0  0  0  0  0  0  0
    4.2868   -0.0000    0.0000 Cl  0  0  0  0  0  0  0  0  0  0  0  0
    3.5724   -1.2375    0.0000 C   0  0  0  0  0  0  0  0  0  0  0  0
    2.8579   -1.6500    0.0000 C   0  0  0  0  0  0  0  0  0  0  0  0
    2.1434   -1.2375    0.0000 C   0  0  0  0  0  0  0  0  0  0  0  0
    0.7145   -3.7125    0.0000 C   0  0  0  0  0  0  0  0  0  0  0  0
    0.0000   -4.1250    0.0000 C   0  0  0  0  0  0  0  0  0  0  0  0
    0.0000   -4.9500    0.0000 O   0  0  0  0  0  0  0  0  0  0  0  0
  1  2  1  0  0  0  0
  2  3  1  0  0  0  0
  3  4  1  0  0  0  0
  4  5  1  0  0  0  0
  5  6  4  0  0  0  0
  6  7  4  0  0  0  0
  7  8  4  0  0  0  0
  8  9  1  0  0  0  0
  9 10  1  0  0  0  0
 10 11  4  0  0  0  0
 11 12  4  0  0  0  0
 12 13  4  0  0  0  0
 13 14  4  0  0  0  0
 14 15  4  0  0  0  0
 15 16  4  0  0  0  0
 16 17  1  0  0  0  0
 16 18  4  0  0  0  0
 18 19  4  0  0  0  0
 19 20  4  0  0  0  0
 10 20  4  0  0  0  0
 14 20  4  0  0  0  0
  8 21  4  0  0  0  0
 21 22  4  0  0  0  0
  5 22  4  0  0  0  0
 22 23  1  0  0  0  0
M  END
>  <CdId>
121

>  <Mol Weight>
327.81

>  <Formula>
C18H18ClN3O

>  <Molecule ChEMBL ID>
CHEMBL146826

>  <Molecule Name>
DESETHYL ISOQUINE

>  <Molecule Max Phase>
None

>  <Molecular Weight>
327.82

>  <#RO5 Violations>
0

>  <AlogP>
4.45

>  <Compound Key>
5

>  <Standard Type>
IC50

>  <Standard Relation>
'='

>  <Standard Value>
23000.0

>  <Standard Units>
nM

$$$$

  Mrv2114 03112311372D          

 27 29  0  0  1  0            999 V2000
    4.2317    0.8041    0.0000 C   0  0  0  0  0  0  0  0  0  0  0  0
    4.2317   -0.0209    0.0000 C   0  0  0  0  0  0  0  0  0  0  0  0
    3.4067   -0.0209    0.0000 C   0  0  0  0  0  0  0  0  0  0  0  0
    5.0567   -0.0209    0.0000 C   0  0  0  0  0  0  0  0  0  0  0  0
    4.2317   -0.8459    0.0000 C   0  0  0  0  0  0  0  0  0  0  0  0
    4.8991   -1.3308    0.0000 C   0  0  0  0  0  0  0  0  0  0  0  0
    4.6442   -2.1155    0.0000 C   0  0  0  0  0  0  0  0  0  0  0  0
    5.1291   -2.7829    0.0000 N   0  0  0  0  0  0  0  0  0  0  0  0
    4.7936   -3.5366    0.0000 C   0  0  0  0  0  0  0  0  0  0  0  0
    3.9731   -3.6228    0.0000 O   0  0  0  0  0  0  0  0  0  0  0  0
    5.2785   -4.2040    0.0000 C   0  0  2  0  0  0  0  0  0  0  0  0
    6.1035   -4.2040    0.0000 C   0  0  0  0  0  0  0  0  0  0  0  0
    6.3584   -4.9886    0.0000 C   0  0  0  0  0  0  0  0  0  0  0  0
    5.6910   -5.4736    0.0000 C   0  0  0  0  0  0  0  0  0  0  0  0
    5.0235   -4.9886    0.0000 N   0  0  0  0  0  0  0  0  0  0  0  0
    4.2389   -5.2436    0.0000 C   0  0  0  0  0  0  0  0  0  0  0  0
    4.0674   -6.0506    0.0000 C   0  0  0  0  0  0  0  0  0  0  0  0
    3.2828   -6.3055    0.0000 C   0  0  0  0  0  0  0  0  0  0  0  0
    2.6697   -5.7535    0.0000 C   0  0  0  0  0  0  0  0  0  0  0  0
    1.8850   -6.0084    0.0000 C   0  0  0  0  0  0  0  0  0  0  0  0
    1.1004   -6.2633    0.0000 F   0  0  0  0  0  0  0  0  0  0  0  0
    1.6301   -5.2238    0.0000 F   0  0  0  0  0  0  0  0  0  0  0  0
    2.1400   -6.7930    0.0000 F   0  0  0  0  0  0  0  0  0  0  0  0
    2.8412   -4.9465    0.0000 C   0  0  0  0  0  0  0  0  0  0  0  0
    3.6258   -4.6916    0.0000 C   0  0  0  0  0  0  0  0  0  0  0  0
    3.8192   -2.1155    0.0000 N   0  0  0  0  0  0  0  0  0  0  0  0
    3.5642   -1.3308    0.0000 O   0  0  0  0  0  0  0  0  0  0  0  0
  1  2  1  0  0  0  0
  2  3  1  0  0  0  0
  2  4  1  0  0  0  0
  2  5  1  0  0  0  0
  5  6  4  0  0  0  0
  6  7  4  0  0  0  0
  7  8  1  0  0  0  0
  8  9  1  0  0  0  0
  9 10  2  0  0  0  0
 11  9  1  6  0  0  0
 11 12  1  0  0  0  0
 12 13  1  0  0  0  0
 13 14  1  0  0  0  0
 14 15  1  0  0  0  0
 11 15  1  0  0  0  0
 15 16  1  0  0  0  0
 16 17  4  0  0  0  0
 17 18  4  0  0  0  0
 18 19  4  0  0  0  0
 19 20  1  0  0  0  0
 20 21  1  0  0  0  0
 20 22  1  0  0  0  0
 20 23  1  0  0  0  0
 19 24  4  0  0  0  0
 24 25  4  0  0  0  0
 16 25  4  0  0  0  0
  7 26  4  0  0  0  0
 26 27  4  0  0  0  0
  5 27  4  0  0  0  0
M  END
>  <CdId>
122

>  <Mol Weight>
381.399

>  <Formula>
C19H22F3N3O2

>  <Molecule ChEMBL ID>
CHEMBL3353862

>  <Molecule Max Phase>
None

>  <Molecular Weight>
381.4

>  <#RO5 Violations>
0

>  <AlogP>
4.6

>  <Compound Key>
4a

>  <Standard Type>
IC50

>  <Standard Relation>
'='

>  <Standard Value>
2400.0

>  <Standard Units>
nM

$$$$

  Mrv2114 03112311372D          

 39 43  0  0  0  0            999 V2000
   -5.7158    3.3000    0.0000 C   0  0  0  0  0  0  0  0  0  0  0  0
   -5.0013    3.7125    0.0000 O   0  0  0  0  0  0  0  0  0  0  0  0
   -4.2868    3.3000    0.0000 C   0  0  0  0  0  0  0  0  0  0  0  0
   -3.5724    3.7125    0.0000 C   0  0  0  0  0  0  0  0  0  0  0  0
   -2.8579    3.3000    0.0000 C   0  0  0  0  0  0  0  0  0  0  0  0
   -2.8579    2.4750    0.0000 C   0  0  0  0  0  0  0  0  0  0  0  0
   -2.1434    2.0625    0.0000 C   0  0  0  0  0  0  0  0  0  0  0  0
   -1.4289    2.4750    0.0000 C   0  0  0  0  0  0  0  0  0  0  0  0
   -0.7145    2.0625    0.0000 C   0  0  0  0  0  0  0  0  0  0  0  0
   -0.7145    1.2375    0.0000 C   0  0  0  0  0  0  0  0  0  0  0  0
    0.0000    0.8250    0.0000 O   0  0  0  0  0  0  0  0  0  0  0  0
    0.0000   -0.0000    0.0000 C   0  0  0  0  0  0  0  0  0  0  0  0
   -0.7145   -0.4125    0.0000 C   0  0  0  0  0  0  0  0  0  0  0  0
   -0.7145   -1.2375    0.0000 C   0  0  0  0  0  0  0  0  0  0  0  0
    0.0000   -1.6500    0.0000 C   0  0  0  0  0  0  0  0  0  0  0  0
    0.7145   -1.2375    0.0000 C   0  0  0  0  0  0  0  0  0  0  0  0
    0.7145   -0.4125    0.0000 C   0  0  0  0  0  0  0  0  0  0  0  0
    1.4289   -0.0000    0.0000 C   0  0  0  0  0  0  0  0  0  0  0  0
    2.1434   -0.4125    0.0000 C   0  0  0  0  0  0  0  0  0  0  0  0
    2.1434   -1.2375    0.0000 C   0  0  0  0  0  0  0  0  0  0  0  0
    1.4289   -1.6500    0.0000 C   0  0  0  0  0  0  0  0  0  0  0  0
   -1.4289    0.8250    0.0000 C   0  0  0  0  0  0  0  0  0  0  0  0
   -1.4289   -0.0000    0.0000 N   0  0  0  0  0  0  0  0  0  0  0  0
   -2.1434   -0.4125    0.0000 C   0  0  0  0  0  0  0  0  0  0  0  0
   -2.8579   -0.0000    0.0000 O   0  0  0  0  0  0  0  0  0  0  0  0
   -2.1434   -1.2375    0.0000 N   0  0  0  0  0  0  0  0  0  0  0  0
   -2.8579   -1.6500    0.0000 C   0  0  0  0  0  0  0  0  0  0  0  0
   -2.8579   -2.4750    0.0000 C   0  0  0  0  0  0  0  0  0  0  0  0
   -3.5724   -2.8875    0.0000 C   0  0  0  0  0  0  0  0  0  0  0  0
   -4.2868   -2.4750    0.0000 C   0  0  0  0  0  0  0  0  0  0  0  0
   -4.2868   -1.6500    0.0000 C   0  0  0  0  0  0  0  0  0  0  0  0
   -5.0013   -1.2375    0.0000 C   0  0  0  0  0  0  0  0  0  0  0  0
   -3.5724   -1.2375    0.0000 C   0  0  0  0  0  0  0  0  0  0  0  0
   -2.1434    1.2375    0.0000 C   0  0  0  0  0  0  0  0  0  0  0  0
   -3.5724    2.0625    0.0000 C   0  0  0  0  0  0  0  0  0  0  0  0
   -4.2868    2.4750    0.0000 C   0  0  0  0  0  0  0  0  0  0  0  0
   -5.0013    2.0625    0.0000 C   0  0  0  0  0  0  0  0  0  0  0  0
   -5.7158    2.4750    0.0000 O   0  0  0  0  0  0  0  0  0  0  0  0
   -5.0013    1.2375    0.0000 O   0  0  0  0  0  0  0  0  0  0  0  0
  1  2  1  0  0  0  0
  2  3  1  0  0  0  0
  3  4  4  0  0  0  0
  4  5  4  0  0  0  0
  5  6  4  0  0  0  0
  6  7  1  0  0  0  0
  7  8  4  0  0  0  0
  8  9  4  0  0  0  0
  9 10  4  0  0  0  0
 10 11  1  0  0  0  0
 11 12  1  0  0  0  0
 12 13  4  0  0  0  0
 13 14  4  0  0  0  0
 14 15  4  0  0  0  0
 15 16  4  0  0  0  0
 16 17  4  0  0  0  0
 12 17  4  0  0  0  0
 17 18  1  0  0  0  0
 18 19  1  0  0  0  0
 19 20  1  0  0  0  0
 20 21  1  0  0  0  0
 16 21  1  0  0  0  0
 10 22  4  0  0  0  0
 22 23  1  0  0  0  0
 23 24  1  0  0  0  0
 24 25  2  0  0  0  0
 24 26  1  0  0  0  0
 26 27  1  0  0  0  0
 27 28  4  0  0  0  0
 28 29  4  0  0  0  0
 29 30  4  0  0  0  0
 30 31  4  0  0  0  0
 31 32  1  0  0  0  0
 31 33  4  0  0  0  0
 27 33  4  0  0  0  0
 22 34  4  0  0  0  0
  7 34  4  0  0  0  0
  6 35  4  0  0  0  0
 35 36  4  0  0  0  0
  3 36  4  0  0  0  0
 36 37  1  0  0  0  0
 37 38  2  0  0  0  0
 37 39  1  0  0  0  0
M  END
>  <CdId>
123

>  <Mol Weight>
522.601

>  <Formula>
C32H30N2O5

>  <Molecule ChEMBL ID>
CHEMBL4060679

>  <Molecule Max Phase>
None

>  <Molecular Weight>
522.6

>  <#RO5 Violations>
2

>  <AlogP>
7.68

>  <Compound Key>
11b

>  <Standard Type>
IC50

>  <Standard Relation>
'>'

>  <Standard Value>
3000.0

>  <Standard Units>
nM

$$$$

  Mrv2114 03112311372D          

 22 23  0  0  0  0            999 V2000
    2.1434   -1.2375    0.0000 C   0  0  0  0  0  0  0  0  0  0  0  0
    2.8579   -1.6500    0.0000 O   0  0  0  0  0  0  0  0  0  0  0  0
    2.8579   -2.4750    0.0000 C   0  0  0  0  0  0  0  0  0  0  0  0
    3.5724   -2.8875    0.0000 C   0  0  0  0  0  0  0  0  0  0  0  0
    3.5724   -3.7125    0.0000 C   0  0  0  0  0  0  0  0  0  0  0  0
    4.2868   -4.1250    0.0000 C   0  0  0  0  0  0  0  0  0  0  0  0
    4.2868   -4.9500    0.0000 C   0  0  0  0  0  0  0  0  0  0  0  0
    5.0013   -5.3625    0.0000 C   0  0  0  0  0  0  0  0  0  0  0  0
    5.7158   -4.9500    0.0000 O   0  0  0  0  0  0  0  0  0  0  0  0
    5.0013   -6.1875    0.0000 C   0  0  0  0  0  0  0  0  0  0  0  0
    5.7158   -6.6000    0.0000 C   0  0  0  0  0  0  0  0  0  0  0  0
    5.7158   -7.4250    0.0000 C   0  0  0  0  0  0  0  0  0  0  0  0
    5.0013   -7.8375    0.0000 N   0  0  0  0  0  0  0  0  0  0  0  0
    4.2868   -7.4250    0.0000 C   0  0  0  0  0  0  0  0  0  0  0  0
    4.2868   -6.6000    0.0000 C   0  0  0  0  0  0  0  0  0  0  0  0
    2.8579   -4.1250    0.0000 C   0  0  0  0  0  0  0  0  0  0  0  0
    2.1434   -3.7125    0.0000 C   0  0  0  0  0  0  0  0  0  0  0  0
    1.4289   -4.1250    0.0000 O   0  0  0  0  0  0  0  0  0  0  0  0
    0.7145   -3.7125    0.0000 C   0  0  0  0  0  0  0  0  0  0  0  0
    2.1434   -2.8875    0.0000 C   0  0  0  0  0  0  0  0  0  0  0  0
    1.4289   -2.4750    0.0000 O   0  0  0  0  0  0  0  0  0  0  0  0
    0.7145   -2.8875    0.0000 C   0  0  0  0  0  0  0  0  0  0  0  0
  1  2  1  0  0  0  0
  2  3  1  0  0  0  0
  3  4  4  0  0  0  0
  4  5  4  0  0  0  0
  5  6  1  0  0  0  0
  6  7  2  0  0  0  0
  7  8  1  0  0  0  0
  8  9  2  0  0  0  0
  8 10  1  0  0  0  0
 10 11  4  0  0  0  0
 11 12  4  0  0  0  0
 12 13  4  0  0  0  0
 13 14  4  0  0  0  0
 14 15  4  0  0  0  0
 10 15  4  0  0  0  0
  5 16  4  0  0  0  0
 16 17  4  0  0  0  0
 17 18  1  0  0  0  0
 18 19  1  0  0  0  0
 17 20  4  0  0  0  0
  3 20  4  0  0  0  0
 20 21  1  0  0  0  0
 21 22  1  0  0  0  0
M  END
>  <CdId>
124

>  <Mol Weight>
299.326

>  <Formula>
C17H17NO4

>  <Molecule ChEMBL ID>
CHEMBL4218749

>  <Molecule Max Phase>
None

>  <Molecular Weight>
299.33

>  <#RO5 Violations>
0

>  <AlogP>
3

>  <Compound Key>
8a

>  <Standard Type>
IC50

>  <Standard Relation>
'='

>  <Standard Value>
8920.0

>  <Standard Units>
nM

$$$$

  Mrv2114 03112311372D          

 33 37  0  0  0  0            999 V2000
   -9.2462   -2.1269    0.0000 O   0  0  0  0  0  0  0  0  0  0  0  0
   -8.8337   -1.4124    0.0000 C   0  0  0  0  0  0  0  0  0  0  0  0
   -9.2462   -0.6979    0.0000 O   0  0  0  0  0  0  0  0  0  0  0  0
   -8.0087   -1.4124    0.0000 C   0  0  0  0  0  0  0  0  0  0  0  0
   -7.5962   -0.6979    0.0000 C   0  0  0  0  0  0  0  0  0  0  0  0
   -6.7712   -0.6979    0.0000 C   0  0  0  0  0  0  0  0  0  0  0  0
   -6.3587   -1.4124    0.0000 C   0  0  0  0  0  0  0  0  0  0  0  0
   -5.5337   -1.4124    0.0000 C   0  0  0  0  0  0  0  0  0  0  0  0
   -5.1212   -0.6979    0.0000 N   0  0  0  0  0  0  0  0  0  0  0  0
   -4.2962   -0.6979    0.0000 C   0  0  0  0  0  0  0  0  0  0  0  0
   -3.8837    0.0165    0.0000 C   0  0  0  0  0  0  0  0  0  0  0  0
   -3.0587    0.0165    0.0000 C   0  0  0  0  0  0  0  0  0  0  0  0
   -2.6462   -0.6979    0.0000 C   0  0  0  0  0  0  0  0  0  0  0  0
   -1.8212   -0.6979    0.0000 C   0  0  0  0  0  0  0  0  0  0  0  0
   -1.4087    0.0165    0.0000 C   0  0  0  0  0  0  0  0  0  0  0  0
   -0.5837    0.0165    0.0000 C   0  0  0  0  0  0  0  0  0  0  0  0
   -0.1712   -0.6979    0.0000 C   0  0  0  0  0  0  0  0  0  0  0  0
    0.6538   -0.6979    0.0000 C   0  0  0  0  0  0  0  0  0  0  0  0
    1.1387   -0.0305    0.0000 N   0  0  0  0  0  0  0  0  0  0  0  0
    1.9233   -0.2854    0.0000 C   0  0  0  0  0  0  0  0  0  0  0  0
    2.6378    0.1271    0.0000 C   0  0  0  0  0  0  0  0  0  0  0  0
    3.3523   -0.2854    0.0000 C   0  0  0  0  0  0  0  0  0  0  0  0
    4.0668    0.1271    0.0000 Cl  0  0  0  0  0  0  0  0  0  0  0  0
    3.3523   -1.1104    0.0000 C   0  0  0  0  0  0  0  0  0  0  0  0
    2.6378   -1.5229    0.0000 C   0  0  0  0  0  0  0  0  0  0  0  0
    1.9233   -1.1104    0.0000 C   0  0  0  0  0  0  0  0  0  0  0  0
    1.1387   -1.3654    0.0000 N   0  0  0  0  0  0  0  0  0  0  0  0
   -0.5837   -1.4124    0.0000 C   0  0  0  0  0  0  0  0  0  0  0  0
   -1.4087   -1.4124    0.0000 N   0  0  0  0  0  0  0  0  0  0  0  0
   -3.0587   -1.4124    0.0000 C   0  0  0  0  0  0  0  0  0  0  0  0
   -3.8837   -1.4124    0.0000 N   0  0  0  0  0  0  0  0  0  0  0  0
   -6.7712   -2.1269    0.0000 C   0  0  0  0  0  0  0  0  0  0  0  0
   -7.5962   -2.1269    0.0000 C   0  0  0  0  0  0  0  0  0  0  0  0
  1  2  2  0  0  0  0
  2  3  1  0  0  0  0
  2  4  1  0  0  0  0
  4  5  4  0  0  0  0
  5  6  4  0  0  0  0
  6  7  4  0  0  0  0
  7  8  1  0  0  0  0
  8  9  1  0  0  0  0
  9 10  1  0  0  0  0
 10 11  4  0  0  0  0
 11 12  4  0  0  0  0
 12 13  4  0  0  0  0
 13 14  1  0  0  0  0
 14 15  4  0  0  0  0
 15 16  4  0  0  0  0
 16 17  4  0  0  0  0
 17 18  1  0  0  0  0
 18 19  4  0  0  0  0
 19 20  4  0  0  0  0
 20 21  4  0  0  0  0
 21 22  4  0  0  0  0
 22 23  1  0  0  0  0
 22 24  4  0  0  0  0
 24 25  4  0  0  0  0
 25 26  4  0  0  0  0
 20 26  4  0  0  0  0
 26 27  4  0  0  0  0
 18 27  4  0  0  0  0
 17 28  4  0  0  0  0
 28 29  4  0  0  0  0
 14 29  4  0  0  0  0
 13 30  4  0  0  0  0
 30 31  4  0  0  0  0
 10 31  4  0  0  0  0
  7 32  4  0  0  0  0
 32 33  4  0  0  0  0
  4 33  4  0  0  0  0
M  STY  1   1 DAT
M  SAL   1  1  27
M  SDT   1 MRV_IMPLICIT_H                                        
M  SDD   1     0.0000    0.0000    DR    ALL  0       0  
M  SED   1 IMPL_H1
M  END
>  <CdId>
125

>  <Mol Weight>
455.9

>  <Formula>
C25H18ClN5O2

>  <Molecule ChEMBL ID>
CHEMBL4577468

>  <Molecule Max Phase>
None

>  <Molecular Weight>
455.91

>  <#RO5 Violations>
1

>  <AlogP>
5.65

>  <Compound Key>
21

>  <Standard Type>
IC50

>  <Standard Relation>
'='

>  <Standard Value>
2.5

>  <Standard Units>
nM

$$$$

  Mrv2114 03112311372D          

 28 30  0  0  0  0            999 V2000
   -1.0778   -2.7856    0.0000 C   0  0  0  0  0  0  0  0  0  0  0  0
   -0.9063   -3.5926    0.0000 C   0  0  0  0  0  0  0  0  0  0  0  0
   -0.1526   -3.9282    0.0000 C   0  0  0  0  0  0  0  0  0  0  0  0
    0.5619   -3.5157    0.0000 C   0  0  0  0  0  0  0  0  0  0  0  0
    1.2763   -3.9282    0.0000 C   0  0  0  0  0  0  0  0  0  0  0  0
    1.2763   -4.7532    0.0000 C   0  0  0  0  0  0  0  0  0  0  0  0
    1.9908   -3.5157    0.0000 C   0  0  0  0  0  0  0  0  0  0  0  0
    1.9908   -2.6907    0.0000 O   0  0  0  0  0  0  0  0  0  0  0  0
    2.7053   -3.9282    0.0000 N   0  0  0  0  0  0  0  0  0  0  0  0
    3.4197   -3.5157    0.0000 C   0  0  0  0  0  0  0  0  0  0  0  0
    4.1342   -3.9282    0.0000 C   0  0  0  0  0  0  0  0  0  0  0  0
    4.1342   -4.7532    0.0000 C   0  0  0  0  0  0  0  0  0  0  0  0
    4.8487   -5.1657    0.0000 O   0  0  0  0  0  0  0  0  0  0  0  0
    3.4197   -5.1657    0.0000 O   0  0  0  0  0  0  0  0  0  0  0  0
    4.8487   -3.5157    0.0000 C   0  0  0  0  0  0  0  0  0  0  0  0
    4.8487   -2.6907    0.0000 C   0  0  0  0  0  0  0  0  0  0  0  0
    4.1342   -2.2782    0.0000 C   0  0  0  0  0  0  0  0  0  0  0  0
    3.4197   -2.6907    0.0000 C   0  0  0  0  0  0  0  0  0  0  0  0
   -0.2388   -4.7486    0.0000 C   0  0  0  0  0  0  0  0  0  0  0  0
   -1.0458   -4.9202    0.0000 N   0  0  0  0  0  0  0  0  0  0  0  0
   -1.4583   -4.2057    0.0000 N   0  0  0  0  0  0  0  0  0  0  0  0
   -2.2788   -4.1195    0.0000 C   0  0  0  0  0  0  0  0  0  0  0  0
   -2.7637   -4.7869    0.0000 C   0  0  0  0  0  0  0  0  0  0  0  0
   -3.5842   -4.7007    0.0000 C   0  0  0  0  0  0  0  0  0  0  0  0
   -3.9198   -3.9470    0.0000 C   0  0  0  0  0  0  0  0  0  0  0  0
   -4.7402   -3.8608    0.0000 O   0  0  0  0  0  0  0  0  0  0  0  0
   -3.4348   -3.2795    0.0000 C   0  0  0  0  0  0  0  0  0  0  0  0
   -2.6144   -3.3658    0.0000 C   0  0  0  0  0  0  0  0  0  0  0  0
  1  2  1  0  0  0  0
  2  3  4  0  0  0  0
  3  4  1  0  0  0  0
  4  5  1  0  0  0  0
  5  6  1  0  0  0  0
  5  7  1  0  0  0  0
  7  8  2  0  0  0  0
  7  9  1  0  0  0  0
  9 10  1  0  0  0  0
 10 11  2  0  0  0  0
 11 12  1  0  0  0  0
 12 13  2  0  0  0  0
 12 14  1  0  0  0  0
 11 15  1  0  0  0  0
 15 16  1  0  0  0  0
 16 17  1  0  0  0  0
 17 18  1  0  0  0  0
 10 18  1  0  0  0  0
  3 19  4  0  0  0  0
 19 20  4  0  0  0  0
 20 21  4  0  0  0  0
  2 21  4  0  0  0  0
 21 22  1  0  0  0  0
 22 23  4  0  0  0  0
 23 24  4  0  0  0  0
 24 25  4  0  0  0  0
 25 26  1  0  0  0  0
 25 27  4  0  0  0  0
 27 28  4  0  0  0  0
 22 28  4  0  0  0  0
M  END
>  <CdId>
126

>  <Mol Weight>
383.448

>  <Formula>
C21H25N3O4

>  <Molecule ChEMBL ID>
CHEMBL1085402

>  <Molecule Max Phase>
None

>  <Molecular Weight>
383.45

>  <#RO5 Violations>
0

>  <AlogP>
3.09

>  <Compound Key>
7

>  <Standard Type>
IC50

>  <Standard Relation>
'>'

>  <Standard Value>
100000.0

>  <Standard Units>
nM

$$$$

  Mrv2114 03112311372D          

 20 22  0  0  0  0            999 V2000
    4.7812    1.9354    0.0000 C   0  0  0  0  0  0  0  0  0  0  0  0
    4.0668    2.3479    0.0000 O   0  0  0  0  0  0  0  0  0  0  0  0
    3.3523    1.9354    0.0000 C   0  0  0  0  0  0  0  0  0  0  0  0
    3.3523    1.1104    0.0000 C   0  0  0  0  0  0  0  0  0  0  0  0
    2.6378    0.6979    0.0000 C   0  0  0  0  0  0  0  0  0  0  0  0
    1.9233    1.1104    0.0000 C   0  0  0  0  0  0  0  0  0  0  0  0
    1.1387    0.8555    0.0000 N   0  0  0  0  0  0  0  0  0  0  0  0
    0.6538    1.5229    0.0000 C   0  0  0  0  0  0  0  0  0  0  0  0
   -0.1712    1.5229    0.0000 S   0  0  0  0  0  0  0  0  0  0  0  0
   -0.5837    0.8085    0.0000 C   0  0  0  0  0  0  0  0  0  0  0  0
   -1.4087    0.8085    0.0000 C   0  0  0  0  0  0  0  0  0  0  0  0
   -1.8212    0.0940    0.0000 C   0  0  0  0  0  0  0  0  0  0  0  0
   -2.6462    0.0940    0.0000 C   0  0  0  0  0  0  0  0  0  0  0  0
   -3.0587    0.8085    0.0000 C   0  0  0  0  0  0  0  0  0  0  0  0
   -3.8837    0.8085    0.0000 I   0  0  0  0  0  0  0  0  0  0  0  0
   -2.6462    1.5229    0.0000 C   0  0  0  0  0  0  0  0  0  0  0  0
   -1.8212    1.5229    0.0000 C   0  0  0  0  0  0  0  0  0  0  0  0
    1.1387    2.1904    0.0000 N   0  0  0  0  0  0  0  0  0  0  0  0
    1.9233    1.9354    0.0000 C   0  0  0  0  0  0  0  0  0  0  0  0
    2.6378    2.3479    0.0000 C   0  0  0  0  0  0  0  0  0  0  0  0
  1  2  1  0  0  0  0
  2  3  1  0  0  0  0
  3  4  4  0  0  0  0
  4  5  4  0  0  0  0
  5  6  4  0  0  0  0
  6  7  4  0  0  0  0
  7  8  4  0  0  0  0
  8  9  1  0  0  0  0
  9 10  1  0  0  0  0
 10 11  1  0  0  0  0
 11 12  4  0  0  0  0
 12 13  4  0  0  0  0
 13 14  4  0  0  0  0
 14 15  1  0  0  0  0
 14 16  4  0  0  0  0
 16 17  4  0  0  0  0
 11 17  4  0  0  0  0
  8 18  4  0  0  0  0
 18 19  4  0  0  0  0
  6 19  4  0  0  0  0
 19 20  4  0  0  0  0
  3 20  4  0  0  0  0
M  STY  1   1 DAT
M  SAL   1  1   7
M  SDT   1 MRV_IMPLICIT_H                                        
M  SDD   1     0.0000    0.0000    DR    ALL  0       0  
M  SED   1 IMPL_H1
M  END
>  <CdId>
127

>  <Mol Weight>
396.25

>  <Formula>
C15H13IN2OS

>  <Molecule ChEMBL ID>
CHEMBL2018921

>  <Molecule Max Phase>
None

>  <Molecular Weight>
396.25

>  <#RO5 Violations>
0

>  <AlogP>
4.47

>  <Compound Key>
19

>  <Standard Type>
IC50

>  <Standard Relation>
'='

>  <Standard Value>
3870.0

>  <Standard Units>
nM

$$$$

  Mrv2114 03112311372D          

 20 20  0  0  0  0            999 V2000
    0.0000    0.0000    0.0000 Cl  0  0  0  0  0  0  0  0  0  0  0  0
    2.0036    0.0000    0.0000 Cl  0  0  0  0  0  0  0  0  0  0  0  0
    1.7853   -1.6500    0.0000 N   0  0  0  0  0  0  0  0  0  0  0  0
    1.0708   -2.0625    0.0000 C   0  0  0  0  0  0  0  0  0  0  0  0
    1.0708   -2.8875    0.0000 C   0  0  0  0  0  0  0  0  0  0  0  0
    1.7382   -3.3724    0.0000 C   0  0  0  0  0  0  0  0  0  0  0  0
    1.4833   -4.1570    0.0000 C   0  0  0  0  0  0  0  0  0  0  0  0
    0.6583   -4.1570    0.0000 C   0  0  0  0  0  0  0  0  0  0  0  0
    0.1734   -4.8245    0.0000 C   0  0  0  0  0  0  0  0  0  0  0  0
    0.5089   -5.5782    0.0000 C   0  0  0  0  0  0  0  0  0  0  0  0
    0.0240   -6.2456    0.0000 N   0  0  0  0  0  0  0  0  0  0  0  0
   -0.7965   -6.1594    0.0000 C   0  0  0  0  0  0  0  0  0  0  0  0
   -1.1320   -5.4057    0.0000 C   0  0  0  0  0  0  0  0  0  0  0  0
   -0.6471   -4.7382    0.0000 C   0  0  0  0  0  0  0  0  0  0  0  0
   -0.9827   -3.9846    0.0000 C   0  0  0  0  0  0  0  0  0  0  0  0
   -1.7896   -3.8130    0.0000 C   0  0  0  0  0  0  0  0  0  0  0  0
   -1.8759   -2.9926    0.0000 C   0  0  0  0  0  0  0  0  0  0  0  0
   -1.1222   -2.6570    0.0000 C   0  0  0  0  0  0  0  0  0  0  0  0
   -0.5702   -3.2701    0.0000 O   0  0  0  0  0  0  0  0  0  0  0  0
    0.4033   -3.3724    0.0000 O   0  0  0  0  0  0  0  0  0  0  0  0
  3  4  1  0  0  0  0
  4  5  1  0  0  0  0
  5  6  4  0  0  0  0
  6  7  4  0  0  0  0
  7  8  4  0  0  0  0
  8  9  1  0  0  0  0
  9 10  4  0  0  0  0
 10 11  4  0  0  0  0
 11 12  4  0  0  0  0
 12 13  4  0  0  0  0
 13 14  4  0  0  0  0
  9 14  4  0  0  0  0
 14 15  1  0  0  0  0
 15 16  4  0  0  0  0
 16 17  4  0  0  0  0
 17 18  4  0  0  0  0
 18 19  4  0  0  0  0
 15 19  4  0  0  0  0
  8 20  4  0  0  0  0
  5 20  4  0  0  0  0
M  END
>  <CdId>
128

>  <Mol Weight>
313.18

>  <Formula>
C14H14Cl2N2O2

>  <Molecule ChEMBL ID>
CHEMBL4161400

>  <Molecule Max Phase>
None

>  <Molecular Weight>
313.18

>  <#RO5 Violations>
0

>  <AlogP>
3.06

>  <Compound Key>
5m

>  <Standard Type>
IC50

>  <Standard Relation>
'='

>  <Standard Value>
5400.0

>  <Standard Units>
nM

$$$$

  Mrv2114 03112311372D          

 41 46  0  0  1  0            999 V2000
   -5.0013    1.2375    0.0000 O   0  0  0  0  0  0  0  0  0  0  0  0
   -5.0013    2.0625    0.0000 C   0  0  0  0  0  0  0  0  0  0  0  0
   -5.7158    2.4750    0.0000 O   0  0  0  0  0  0  0  0  0  0  0  0
   -4.2868    2.4750    0.0000 C   0  0  0  0  0  0  0  0  0  0  0  0
   -4.2868    3.3000    0.0000 C   0  0  0  0  0  0  0  0  0  0  0  0
   -3.5724    3.7125    0.0000 C   0  0  0  0  0  0  0  0  0  0  0  0
   -2.8579    3.3000    0.0000 C   0  0  0  0  0  0  0  0  0  0  0  0
   -2.1434    3.7125    0.0000 S   0  0  0  0  0  0  0  0  0  0  0  0
   -1.4289    3.3000    0.0000 C   0  0  0  0  0  0  0  0  0  0  0  0
   -0.7145    3.7125    0.0000 C   0  0  0  0  0  0  0  0  0  0  0  0
   -0.0000    3.3000    0.0000 C   0  0  0  0  0  0  0  0  0  0  0  0
    0.0000    2.4750    0.0000 C   0  0  0  0  0  0  0  0  0  0  0  0
    0.7145    2.0625    0.0000 C   0  0  0  0  0  0  0  0  0  0  0  0
    0.7145    1.2375    0.0000 N   0  0  0  0  0  0  0  0  0  0  0  0
    1.4289    0.8250    0.0000 C   0  0  0  0  0  0  0  0  0  0  0  0
    1.4289   -0.0000    0.0000 C   0  0  0  0  0  0  0  0  0  0  0  0
    0.7145   -0.4125    0.0000 C   0  0  0  0  0  0  0  0  0  0  0  0
    0.7145   -1.2375    0.0000 N   0  0  0  0  0  0  0  0  0  0  0  0
    1.3819   -1.7224    0.0000 C   0  0  0  0  0  0  0  0  0  0  0  0
    2.1665   -1.4675    0.0000 O   0  0  0  0  0  0  0  0  0  0  0  0
    1.1270   -2.5070    0.0000 N   0  0  0  0  0  0  0  0  0  0  0  0
    1.6119   -3.1745    0.0000 C   0  0  0  0  0  0  0  0  0  0  0  0
    2.4324   -3.0882    0.0000 C   0  0  0  0  0  0  0  0  0  0  0  0
    2.9173   -3.7557    0.0000 C   0  0  0  0  0  0  0  0  0  0  0  0
    2.5817   -4.5094    0.0000 O   0  0  0  0  0  0  0  0  0  0  0  0
    1.7613   -4.5956    0.0000 C   0  0  0  0  0  0  0  0  0  0  0  0
    1.2763   -3.9282    0.0000 C   0  0  0  0  0  0  0  0  0  0  0  0
    0.3020   -2.5070    0.0000 C   0  0  0  0  0  0  0  0  0  0  0  0
    0.0470   -1.7224    0.0000 C   0  0  1  0  0  0  0  0  0  0  0  0
   -0.7376   -1.4675    0.0000 C   0  0  0  0  0  0  0  0  0  0  0  0
   -1.3507   -2.0195    0.0000 C   0  0  0  0  0  0  0  0  0  0  0  0
   -2.1353   -1.7646    0.0000 C   0  0  0  0  0  0  0  0  0  0  0  0
   -2.3068   -0.9576    0.0000 C   0  0  0  0  0  0  0  0  0  0  0  0
   -1.6937   -0.4056    0.0000 C   0  0  0  0  0  0  0  0  0  0  0  0
   -0.9091   -0.6605    0.0000 C   0  0  0  0  0  0  0  0  0  0  0  0
    0.0000   -0.0000    0.0000 C   0  0  0  0  0  0  0  0  0  0  0  0
    0.0000    0.8250    0.0000 C   0  0  0  0  0  0  0  0  0  0  0  0
   -0.7145    2.0625    0.0000 C   0  0  0  0  0  0  0  0  0  0  0  0
   -1.4289    2.4750    0.0000 N   0  0  0  0  0  0  0  0  0  0  0  0
   -2.8579    2.4750    0.0000 C   0  0  0  0  0  0  0  0  0  0  0  0
   -3.5724    2.0625    0.0000 C   0  0  0  0  0  0  0  0  0  0  0  0
  1  2  2  0  0  0  0
  2  3  1  0  0  0  0
  2  4  1  0  0  0  0
  4  5  4  0  0  0  0
  5  6  4  0  0  0  0
  6  7  4  0  0  0  0
  7  8  1  0  0  0  0
  8  9  1  0  0  0  0
  9 10  4  0  0  0  0
 10 11  4  0  0  0  0
 11 12  4  0  0  0  0
 12 13  1  0  0  0  0
 13 14  1  0  0  0  0
 14 15  1  0  0  0  0
 15 16  1  0  0  0  0
 16 17  1  0  0  0  0
 17 18  1  0  0  0  0
 18 19  1  0  0  0  0
 19 20  2  0  0  0  0
 19 21  1  0  0  0  0
 21 22  1  0  0  0  0
 22 23  1  0  0  0  0
 23 24  1  0  0  0  0
 24 25  1  0  0  0  0
 25 26  1  0  0  0  0
 26 27  1  0  0  0  0
 22 27  1  0  0  0  0
 21 28  1  0  0  0  0
 29 28  1  0  0  0  0
 29 18  1  0  0  0  0
 29 30  1  1  0  0  0
 30 31  4  0  0  0  0
 31 32  4  0  0  0  0
 32 33  4  0  0  0  0
 33 34  4  0  0  0  0
 34 35  4  0  0  0  0
 30 35  4  0  0  0  0
 17 36  1  0  0  0  0
 36 37  1  0  0  0  0
 14 37  1  0  0  0  0
 12 38  4  0  0  0  0
 38 39  4  0  0  0  0
  9 39  4  0  0  0  0
  7 40  4  0  0  0  0
 40 41  4  0  0  0  0
  4 41  4  0  0  0  0
M  END
>  <CdId>
129

>  <Mol Weight>
572.72

>  <Formula>
C32H36N4O4S

>  <Molecule ChEMBL ID>
CHEMBL2434978

>  <Molecule Max Phase>
None

>  <Molecular Weight>
572.73

>  <#RO5 Violations>
2

>  <AlogP>
5.55

>  <Compound Key>
6i

>  <Standard Type>
IC50

>  <Standard Relation>
'>'

>  <Standard Value>
60000.0

>  <Standard Units>
nM

$$$$

  Mrv2114 03112311372D          

 20 22  0  0  0  0            999 V2000
    4.7812    1.9354    0.0000 C   0  0  0  0  0  0  0  0  0  0  0  0
    4.0668    2.3479    0.0000 O   0  0  0  0  0  0  0  0  0  0  0  0
    3.3523    1.9354    0.0000 C   0  0  0  0  0  0  0  0  0  0  0  0
    3.3523    1.1104    0.0000 C   0  0  0  0  0  0  0  0  0  0  0  0
    2.6378    0.6979    0.0000 C   0  0  0  0  0  0  0  0  0  0  0  0
    1.9233    1.1104    0.0000 C   0  0  0  0  0  0  0  0  0  0  0  0
    1.1387    0.8555    0.0000 N   0  0  0  0  0  0  0  0  0  0  0  0
    0.6538    1.5229    0.0000 C   0  0  0  0  0  0  0  0  0  0  0  0
   -0.1712    1.5229    0.0000 S   0  0  0  0  0  0  0  0  0  0  0  0
   -0.5837    0.8085    0.0000 C   0  0  0  0  0  0  0  0  0  0  0  0
   -1.4087    0.8085    0.0000 C   0  0  0  0  0  0  0  0  0  0  0  0
   -1.8212    0.0940    0.0000 C   0  0  0  0  0  0  0  0  0  0  0  0
   -2.6462    0.0940    0.0000 C   0  0  0  0  0  0  0  0  0  0  0  0
   -3.0587    0.8085    0.0000 C   0  0  0  0  0  0  0  0  0  0  0  0
   -3.8837    0.8085    0.0000 Br  0  0  0  0  0  0  0  0  0  0  0  0
   -2.6462    1.5229    0.0000 C   0  0  0  0  0  0  0  0  0  0  0  0
   -1.8212    1.5229    0.0000 C   0  0  0  0  0  0  0  0  0  0  0  0
    1.1387    2.1904    0.0000 N   0  0  0  0  0  0  0  0  0  0  0  0
    1.9233    1.9354    0.0000 C   0  0  0  0  0  0  0  0  0  0  0  0
    2.6378    2.3479    0.0000 C   0  0  0  0  0  0  0  0  0  0  0  0
  1  2  1  0  0  0  0
  2  3  1  0  0  0  0
  3  4  4  0  0  0  0
  4  5  4  0  0  0  0
  5  6  4  0  0  0  0
  6  7  4  0  0  0  0
  7  8  4  0  0  0  0
  8  9  1  0  0  0  0
  9 10  1  0  0  0  0
 10 11  1  0  0  0  0
 11 12  4  0  0  0  0
 12 13  4  0  0  0  0
 13 14  4  0  0  0  0
 14 15  1  0  0  0  0
 14 16  4  0  0  0  0
 16 17  4  0  0  0  0
 11 17  4  0  0  0  0
  8 18  4  0  0  0  0
 18 19  4  0  0  0  0
  6 19  4  0  0  0  0
 19 20  4  0  0  0  0
  3 20  4  0  0  0  0
M  STY  1   1 DAT
M  SAL   1  1   7
M  SDT   1 MRV_IMPLICIT_H                                        
M  SDD   1     0.0000    0.0000    DR    ALL  0       0  
M  SED   1 IMPL_H1
M  END
>  <CdId>
130

>  <Mol Weight>
349.25

>  <Formula>
C15H13BrN2OS

>  <Molecule ChEMBL ID>
CHEMBL2018920

>  <Molecule Max Phase>
None

>  <Molecular Weight>
349.25

>  <#RO5 Violations>
0

>  <AlogP>
4.63

>  <Compound Key>
18

>  <Standard Type>
IC50

>  <Standard Relation>
'='

>  <Standard Value>
1870.0

>  <Standard Units>
nM

$$$$

  Mrv2114 03112311372D          

 13 11  0  0  0  0            999 V2000
    0.8444    2.0625    0.0000 C   0  0  0  0  0  0  0  0  0  0  0  0
    0.8444    1.2375    0.0000 C   0  0  0  0  0  0  0  0  0  0  0  0
    1.5588    0.8250    0.0000 C   0  0  0  0  0  0  0  0  0  0  0  0
    1.5588   -0.0000    0.0000 N   0  0  0  0  0  0  0  0  0  0  0  0
    0.8444   -0.4125    0.0000 C   0  0  0  0  0  0  0  0  0  0  0  0
    0.1299   -0.0000    0.0000 C   0  0  0  0  0  0  0  0  0  0  0  0
   -0.5846   -0.4125    0.0000 C   0  0  0  0  0  0  0  0  0  0  0  0
   -1.2990   -0.8250    0.0000 C   0  0  0  0  0  0  0  0  0  0  0  0
   -2.0135   -1.2375    0.0000 C   0  0  0  0  0  0  0  0  0  0  0  0
   -2.0135   -2.0625    0.0000 N   0  0  0  0  0  0  0  0  0  0  0  0
    0.1299    0.8250    0.0000 C   0  0  0  0  0  0  0  0  0  0  0  0
    3.5624    0.0000    0.0000 Cl  0  0  0  0  0  0  0  0  0  0  0  0
    0.0000   -3.7125    0.0000 Cl  0  0  0  0  0  0  0  0  0  0  0  0
  1  2  1  0  0  0  0
  2  3  4  0  0  0  0
  3  4  4  0  0  0  0
  4  5  4  0  0  0  0
  5  6  4  0  0  0  0
  6  7  1  0  0  0  0
  7  8  3  0  0  0  0
  8  9  1  0  0  0  0
  9 10  1  0  0  0  0
  6 11  4  0  0  0  0
  2 11  4  0  0  0  0
M  END
>  <CdId>
131

>  <Mol Weight>
219.11

>  <Formula>
C9H12Cl2N2

>  <Molecule ChEMBL ID>
CHEMBL4172676

>  <Molecule Max Phase>
None

>  <Molecular Weight>
219.12

>  <#RO5 Violations>
0

>  <AlogP>
0.7

>  <Compound Key>
4f

>  <Standard Type>
IC50

$$$$

  Mrv2114 03112311372D          

 24 27  0  0  0  0            999 V2000
    1.1809   -3.5477    0.0000 N   0  0  0  0  0  0  0  0  0  0  0  0
    1.4358   -2.7631    0.0000 C   0  0  0  0  0  0  0  0  0  0  0  0
    0.8838   -2.1500    0.0000 C   0  0  0  0  0  0  0  0  0  0  0  0
    1.1387   -1.3654    0.0000 C   0  0  0  0  0  0  0  0  0  0  0  0
    0.6538   -0.6979    0.0000 C   0  0  0  0  0  0  0  0  0  0  0  0
    1.1387   -0.0305    0.0000 N   0  0  0  0  0  0  0  0  0  0  0  0
    0.8838    0.7541    0.0000 S   0  0  0  0  0  0  0  0  0  0  0  0
    1.6684    1.0091    0.0000 O   0  0  0  0  0  0  0  0  0  0  0  0
    0.0992    0.4992    0.0000 O   0  0  0  0  0  0  0  0  0  0  0  0
    0.6288    1.5387    0.0000 C   0  0  0  0  0  0  0  0  0  0  0  0
   -0.1558    1.7937    0.0000 C   0  0  0  0  0  0  0  0  0  0  0  0
   -0.8232    1.3088    0.0000 Cl  0  0  0  0  0  0  0  0  0  0  0  0
   -0.1558    2.6187    0.0000 N   0  0  0  0  0  0  0  0  0  0  0  0
    0.6288    2.8736    0.0000 C   0  0  0  0  0  0  0  0  0  0  0  0
    1.1138    3.5411    0.0000 S   0  0  0  0  0  0  0  0  0  0  0  0
    1.8984    3.2861    0.0000 C   0  0  0  0  0  0  0  0  0  0  0  0
    1.8984    2.4611    0.0000 C   0  0  0  0  0  0  0  0  0  0  0  0
    1.1138    2.2062    0.0000 N   0  0  0  0  0  0  0  0  0  0  0  0
    1.9233   -0.2854    0.0000 C   0  0  0  0  0  0  0  0  0  0  0  0
    2.6378    0.1271    0.0000 C   0  0  0  0  0  0  0  0  0  0  0  0
    3.3523   -0.2854    0.0000 C   0  0  0  0  0  0  0  0  0  0  0  0
    3.3523   -1.1104    0.0000 C   0  0  0  0  0  0  0  0  0  0  0  0
    2.6378   -1.5229    0.0000 C   0  0  0  0  0  0  0  0  0  0  0  0
    1.9233   -1.1104    0.0000 C   0  0  0  0  0  0  0  0  0  0  0  0
  1  2  1  0  0  0  0
  2  3  1  0  0  0  0
  3  4  1  0  0  0  0
  4  5  4  0  0  0  0
  5  6  4  0  0  0  0
  6  7  1  0  0  0  0
  7  8  2  0  0  0  0
  7  9  2  0  0  0  0
  7 10  1  0  0  0  0
 10 11  4  0  0  0  0
 11 12  1  0  0  0  0
 11 13  4  0  0  0  0
 13 14  4  0  0  0  0
 14 15  4  0  0  0  0
 15 16  4  0  0  0  0
 16 17  4  0  0  0  0
 17 18  4  0  0  0  0
 10 18  4  0  0  0  0
 14 18  4  0  0  0  0
  6 19  4  0  0  0  0
 19 20  4  0  0  0  0
 20 21  4  0  0  0  0
 21 22  4  0  0  0  0
 22 23  4  0  0  0  0
 23 24  4  0  0  0  0
  4 24  4  0  0  0  0
 19 24  4  0  0  0  0
M  END
>  <CdId>
132

>  <Mol Weight>
380.87

>  <Formula>
C15H13ClN4O2S2

>  <Molecule ChEMBL ID>
CHEMBL392760

>  <Molecule Max Phase>
None

>  <Molecular Weight>
380.88

>  <#RO5 Violations>
0

>  <AlogP>
2.74

>  <Compound Key>
11q

>  <Standard Type>
IC50

>  <Standard Relation>
'>'

>  <Standard Value>
500000.0

>  <Standard Units>
nM

$$$$

  Mrv2114 03112311372D          

 20 17  0  0  0  0            999 V2000
    0.0000    0.0000    0.0000 Cl  0  0  0  0  0  0  0  0  0  0  0  0
    2.0036    0.0000    0.0000 Cl  0  0  0  0  0  0  0  0  0  0  0  0
    4.0071    0.0000    0.0000 Cl  0  0  0  0  0  0  0  0  0  0  0  0
    0.0000   -4.2023    0.0000 Cl  0  0  0  0  0  0  0  0  0  0  0  0
    5.4581   -1.6500    0.0000 N   0  0  0  0  0  0  0  0  0  0  0  0
    4.7436   -2.0625    0.0000 C   0  0  0  0  0  0  0  0  0  0  0  0
    4.7436   -2.8875    0.0000 C   0  0  0  0  0  0  0  0  0  0  0  0
    4.7436   -3.7125    0.0000 C   0  0  0  0  0  0  0  0  0  0  0  0
    4.7436   -4.5375    0.0000 C   0  0  0  0  0  0  0  0  0  0  0  0
    5.4581   -4.9500    0.0000 C   0  0  0  0  0  0  0  0  0  0  0  0
    5.4581   -5.7750    0.0000 N   0  0  0  0  0  0  0  0  0  0  0  0
    4.7436   -6.1875    0.0000 C   0  0  0  0  0  0  0  0  0  0  0  0
    4.0291   -5.7750    0.0000 C   0  0  0  0  0  0  0  0  0  0  0  0
    4.0291   -4.9500    0.0000 C   0  0  0  0  0  0  0  0  0  0  0  0
    3.3147   -4.5375    0.0000 C   0  0  0  0  0  0  0  0  0  0  0  0
    2.6002   -4.9500    0.0000 C   0  0  0  0  0  0  0  0  0  0  0  0
    1.8857   -4.5375    0.0000 N   0  0  0  0  0  0  0  0  0  0  0  0
    1.8857   -3.7125    0.0000 C   0  0  0  0  0  0  0  0  0  0  0  0
    2.6002   -3.3000    0.0000 N   0  0  0  0  0  0  0  0  0  0  0  0
    3.3147   -3.7125    0.0000 C   0  0  0  0  0  0  0  0  0  0  0  0
  5  6  1  0  0  0  0
  6  7  1  0  0  0  0
  7  8  3  0  0  0  0
  8  9  1  0  0  0  0
  9 10  4  0  0  0  0
 10 11  4  0  0  0  0
 11 12  4  0  0  0  0
 12 13  4  0  0  0  0
 13 14  4  0  0  0  0
  9 14  4  0  0  0  0
 14 15  1  0  0  0  0
 15 16  4  0  0  0  0
 16 17  4  0  0  0  0
 17 18  4  0  0  0  0
 18 19  4  0  0  0  0
 19 20  4  0  0  0  0
 15 20  4  0  0  0  0
M  END
>  <CdId>
133

>  <Mol Weight>
356.07

>  <Formula>
C12H14Cl4N4

>  <Molecule ChEMBL ID>
CHEMBL4161777

>  <Molecule Max Phase>
None

>  <Molecular Weight>
356.08

>  <#RO5 Violations>
0

>  <AlogP>
0.85

>  <Compound Key>
4q

>  <Standard Type>
IC50

>  <Standard Relation>
'>'

>  <Standard Value>
50000.0

>  <Standard Units>
nM

$$$$

  Mrv2114 03112311372D          

 20 20  0  0  0  0            999 V2000
    0.0000    0.0000    0.0000 Cl  0  0  0  0  0  0  0  0  0  0  0  0
    2.0036    0.0000    0.0000 Cl  0  0  0  0  0  0  0  0  0  0  0  0
    1.7853   -1.6500    0.0000 N   0  0  0  0  0  0  0  0  0  0  0  0
    1.0708   -2.0625    0.0000 C   0  0  0  0  0  0  0  0  0  0  0  0
    1.0708   -2.8875    0.0000 C   0  0  0  0  0  0  0  0  0  0  0  0
    1.7382   -3.3724    0.0000 C   0  0  0  0  0  0  0  0  0  0  0  0
    1.4833   -4.1570    0.0000 C   0  0  0  0  0  0  0  0  0  0  0  0
    0.6583   -4.1570    0.0000 C   0  0  0  0  0  0  0  0  0  0  0  0
    0.1734   -4.8245    0.0000 C   0  0  0  0  0  0  0  0  0  0  0  0
    0.5089   -5.5782    0.0000 C   0  0  0  0  0  0  0  0  0  0  0  0
    0.0240   -6.2456    0.0000 N   0  0  0  0  0  0  0  0  0  0  0  0
   -0.7965   -6.1594    0.0000 C   0  0  0  0  0  0  0  0  0  0  0  0
   -1.1320   -5.4057    0.0000 C   0  0  0  0  0  0  0  0  0  0  0  0
   -0.6471   -4.7382    0.0000 C   0  0  0  0  0  0  0  0  0  0  0  0
   -0.9827   -3.9846    0.0000 C   0  0  0  0  0  0  0  0  0  0  0  0
   -1.7896   -3.8130    0.0000 C   0  0  0  0  0  0  0  0  0  0  0  0
   -1.8759   -2.9926    0.0000 C   0  0  0  0  0  0  0  0  0  0  0  0
   -1.1222   -2.6570    0.0000 C   0  0  0  0  0  0  0  0  0  0  0  0
   -0.5702   -3.2701    0.0000 O   0  0  0  0  0  0  0  0  0  0  0  0
    0.4033   -3.3724    0.0000 S   0  0  0  0  0  0  0  0  0  0  0  0
  3  4  1  0  0  0  0
  4  5  1  0  0  0  0
  5  6  4  0  0  0  0
  6  7  4  0  0  0  0
  7  8  4  0  0  0  0
  8  9  1  0  0  0  0
  9 10  4  0  0  0  0
 10 11  4  0  0  0  0
 11 12  4  0  0  0  0
 12 13  4  0  0  0  0
 13 14  4  0  0  0  0
  9 14  4  0  0  0  0
 14 15  1  0  0  0  0
 15 16  4  0  0  0  0
 16 17  4  0  0  0  0
 17 18  4  0  0  0  0
 18 19  4  0  0  0  0
 15 19  4  0  0  0  0
  8 20  4  0  0  0  0
  5 20  4  0  0  0  0
M  END
>  <CdId>
134

>  <Mol Weight>
329.24

>  <Formula>
C14H14Cl2N2OS

>  <Molecule ChEMBL ID>
CHEMBL4168669

>  <Molecule Max Phase>
None

>  <Molecular Weight>
329.25

>  <#RO5 Violations>
0

>  <AlogP>
3.53

>  <Compound Key>
6m

>  <Standard Type>
IC50

>  <Standard Relation>
'='

>  <Standard Value>
3800.0

>  <Standard Units>
nM

$$$$

  Mrv2114 03112311372D          

 39 43  0  0  0  0            999 V2000
   -5.7158    3.3000    0.0000 C   0  0  0  0  0  0  0  0  0  0  0  0
   -5.0013    3.7125    0.0000 O   0  0  0  0  0  0  0  0  0  0  0  0
   -4.2868    3.3000    0.0000 C   0  0  0  0  0  0  0  0  0  0  0  0
   -3.5724    3.7125    0.0000 C   0  0  0  0  0  0  0  0  0  0  0  0
   -2.8579    3.3000    0.0000 C   0  0  0  0  0  0  0  0  0  0  0  0
   -2.8579    2.4750    0.0000 C   0  0  0  0  0  0  0  0  0  0  0  0
   -2.1434    2.0625    0.0000 C   0  0  0  0  0  0  0  0  0  0  0  0
   -1.4289    2.4750    0.0000 C   0  0  0  0  0  0  0  0  0  0  0  0
   -0.7145    2.0625    0.0000 C   0  0  0  0  0  0  0  0  0  0  0  0
   -0.7145    1.2375    0.0000 C   0  0  0  0  0  0  0  0  0  0  0  0
    0.0000    0.8250    0.0000 O   0  0  0  0  0  0  0  0  0  0  0  0
    0.0000   -0.0000    0.0000 C   0  0  0  0  0  0  0  0  0  0  0  0
   -0.7145   -0.4125    0.0000 C   0  0  0  0  0  0  0  0  0  0  0  0
   -0.7145   -1.2375    0.0000 C   0  0  0  0  0  0  0  0  0  0  0  0
    0.0000   -1.6500    0.0000 C   0  0  0  0  0  0  0  0  0  0  0  0
    0.7145   -1.2375    0.0000 C   0  0  0  0  0  0  0  0  0  0  0  0
    0.7145   -0.4125    0.0000 C   0  0  0  0  0  0  0  0  0  0  0  0
    1.4289   -0.0000    0.0000 C   0  0  0  0  0  0  0  0  0  0  0  0
    2.1434   -0.4125    0.0000 C   0  0  0  0  0  0  0  0  0  0  0  0
    2.1434   -1.2375    0.0000 C   0  0  0  0  0  0  0  0  0  0  0  0
    1.4289   -1.6500    0.0000 C   0  0  0  0  0  0  0  0  0  0  0  0
   -1.4289    0.8250    0.0000 C   0  0  0  0  0  0  0  0  0  0  0  0
   -1.4289   -0.0000    0.0000 N   0  0  0  0  0  0  0  0  0  0  0  0
   -2.1434   -0.4125    0.0000 C   0  0  0  0  0  0  0  0  0  0  0  0
   -2.8579   -0.0000    0.0000 O   0  0  0  0  0  0  0  0  0  0  0  0
   -2.1434   -1.2375    0.0000 N   0  0  0  0  0  0  0  0  0  0  0  0
   -2.8579   -1.6500    0.0000 C   0  0  0  0  0  0  0  0  0  0  0  0
   -2.8579   -2.4750    0.0000 C   0  0  0  0  0  0  0  0  0  0  0  0
   -3.5724   -2.8875    0.0000 C   0  0  0  0  0  0  0  0  0  0  0  0
   -4.2868   -2.4750    0.0000 C   0  0  0  0  0  0  0  0  0  0  0  0
   -4.2868   -1.6500    0.0000 C   0  0  0  0  0  0  0  0  0  0  0  0
   -3.5724   -1.2375    0.0000 C   0  0  0  0  0  0  0  0  0  0  0  0
   -3.5724   -0.4125    0.0000 Cl  0  0  0  0  0  0  0  0  0  0  0  0
   -2.1434    1.2375    0.0000 C   0  0  0  0  0  0  0  0  0  0  0  0
   -3.5724    2.0625    0.0000 C   0  0  0  0  0  0  0  0  0  0  0  0
   -4.2868    2.4750    0.0000 C   0  0  0  0  0  0  0  0  0  0  0  0
   -5.0013    2.0625    0.0000 C   0  0  0  0  0  0  0  0  0  0  0  0
   -5.7158    2.4750    0.0000 O   0  0  0  0  0  0  0  0  0  0  0  0
   -5.0013    1.2375    0.0000 O   0  0  0  0  0  0  0  0  0  0  0  0
  1  2  1  0  0  0  0
  2  3  1  0  0  0  0
  3  4  4  0  0  0  0
  4  5  4  0  0  0  0
  5  6  4  0  0  0  0
  6  7  1  0  0  0  0
  7  8  4  0  0  0  0
  8  9  4  0  0  0  0
  9 10  4  0  0  0  0
 10 11  1  0  0  0  0
 11 12  1  0  0  0  0
 12 13  4  0  0  0  0
 13 14  4  0  0  0  0
 14 15  4  0  0  0  0
 15 16  4  0  0  0  0
 16 17  4  0  0  0  0
 12 17  4  0  0  0  0
 17 18  1  0  0  0  0
 18 19  1  0  0  0  0
 19 20  1  0  0  0  0
 20 21  1  0  0  0  0
 16 21  1  0  0  0  0
 10 22  4  0  0  0  0
 22 23  1  0  0  0  0
 23 24  1  0  0  0  0
 24 25  2  0  0  0  0
 24 26  1  0  0  0  0
 26 27  1  0  0  0  0
 27 28  4  0  0  0  0
 28 29  4  0  0  0  0
 29 30  4  0  0  0  0
 30 31  4  0  0  0  0
 31 32  4  0  0  0  0
 27 32  4  0  0  0  0
 32 33  1  0  0  0  0
 22 34  4  0  0  0  0
  7 34  4  0  0  0  0
  6 35  4  0  0  0  0
 35 36  4  0  0  0  0
  3 36  4  0  0  0  0
 36 37  1  0  0  0  0
 37 38  2  0  0  0  0
 37 39  1  0  0  0  0
M  END
>  <CdId>
135

>  <Mol Weight>
543.02

>  <Formula>
C31H27ClN2O5

>  <Molecule ChEMBL ID>
CHEMBL4060089

>  <Molecule Max Phase>
None

>  <Molecular Weight>
543.02

>  <#RO5 Violations>
2

>  <AlogP>
8.03

>  <Compound Key>
11e

>  <Standard Type>
IC50

>  <Standard Relation>
'>'

>  <Standard Value>
3000.0

>  <Standard Units>
nM

$$$$

  Mrv2114 03112311372D          

 32 36  0  0  1  0            999 V2000
    0.6319   -2.9251    0.0000 C   0  0  0  0  0  0  0  0  0  0  0  0
    1.4440   -2.7799    0.0000 C   0  0  0  0  0  0  0  0  0  0  0  0
    2.2561   -2.6347    0.0000 C   0  0  0  0  0  0  0  0  0  0  0  0
    3.0683   -2.4895    0.0000 C   0  0  2  0  0  0  0  0  0  0  0  0
    3.1278   -3.3123    0.0000 O   0  0  0  0  0  0  0  0  0  0  0  0
    2.8390   -1.6970    0.0000 C   0  0  0  0  0  0  0  0  0  0  0  0
    3.5218   -1.2340    0.0000 C   0  0  0  0  0  0  0  0  0  0  0  0
    4.1731   -1.7404    0.0000 C   0  0  1  0  0  0  0  0  0  0  0  0
    4.9853   -1.5952    0.0000 C   0  0  2  0  0  0  0  0  0  0  0  0
    5.2655   -0.8192    0.0000 C   0  0  0  0  0  0  0  0  0  0  0  0
    6.0777   -0.6740    0.0000 C   0  0  0  0  0  0  0  0  0  0  0  0
    6.6095   -1.3047    0.0000 C   0  0  0  0  0  0  0  0  0  0  0  0
    7.4216   -1.1595    0.0000 C   0  0  0  0  0  0  0  0  0  0  0  0
    7.9534   -1.7902    0.0000 C   0  0  0  0  0  0  0  0  0  0  0  0
    8.7655   -1.6450    0.0000 O   0  0  0  0  0  0  0  0  0  0  0  0
    7.6731   -2.5662    0.0000 C   0  0  0  0  0  0  0  0  0  0  0  0
    6.8610   -2.7114    0.0000 C   0  0  0  0  0  0  0  0  0  0  0  0
    6.3292   -2.0807    0.0000 C   0  0  0  0  0  0  0  0  0  0  0  0
    5.5171   -2.2259    0.0000 C   0  0  0  0  0  0  0  0  0  0  0  0
    5.2368   -3.0018    0.0000 C   0  0  1  0  0  0  0  0  0  0  0  0
    5.7686   -3.6325    0.0000 C   0  0  0  0  0  0  0  0  0  0  0  0
    6.5807   -3.4873    0.0000 C   0  0  0  0  0  0  0  0  0  0  0  0
    7.1125   -4.1180    0.0000 C   0  0  0  0  0  0  0  0  0  0  0  0
    6.8322   -4.8939    0.0000 C   0  0  0  0  0  0  0  0  0  0  0  0
    7.3640   -5.5246    0.0000 N   0  0  0  0  0  0  0  0  0  0  0  0
    7.0838   -6.3006    0.0000 C   0  0  0  0  0  0  0  0  0  0  0  0
    8.1762   -5.3794    0.0000 C   0  0  0  0  0  0  0  0  0  0  0  0
    6.0201   -5.0391    0.0000 C   0  0  0  0  0  0  0  0  0  0  0  0
    5.4883   -4.4084    0.0000 C   0  0  0  0  0  0  0  0  0  0  0  0
    4.4247   -3.1470    0.0000 C   0  0  0  0  0  0  0  0  0  0  0  0
    3.8928   -2.5163    0.0000 C   0  0  2  0  0  0  0  0  0  0  0  0
    3.5330   -3.2587    0.0000 C   0  0  0  0  0  0  0  0  0  0  0  0
  1  2  1  0  0  0  0
  2  3  3  0  0  0  0
  4  3  1  6  0  0  0
  4  5  1  1  0  0  0
  4  6  1  0  0  0  0
  6  7  1  0  0  0  0
  8  7  1  1  0  0  0
  8  9  1  0  0  0  0
  9 10  1  6  0  0  0
 10 11  1  0  0  0  0
 11 12  1  0  0  0  0
 12 13  2  0  0  0  0
 13 14  1  0  0  0  0
 14 15  2  0  0  0  0
 14 16  1  0  0  0  0
 16 17  1  0  0  0  0
 17 18  1  0  0  0  0
 12 18  1  0  0  0  0
 18 19  2  0  0  0  0
  9 19  1  0  0  0  0
 20 19  1  0  0  0  0
 20 21  1  1  0  0  0
 21 22  4  0  0  0  0
 22 23  4  0  0  0  0
 23 24  4  0  0  0  0
 24 25  1  0  0  0  0
 25 26  1  0  0  0  0
 25 27  1  0  0  0  0
 24 28  4  0  0  0  0
 28 29  4  0  0  0  0
 21 29  4  0  0  0  0
 20 30  1  0  0  0  0
 31 30  1  0  0  0  0
  8 31  1  0  0  0  0
 31  4  1  0  0  0  0
 31 32  1  1  0  0  0
M  END
>  <CdId>
136

>  <Mol Weight>
429.604

>  <Formula>
C29H35NO2

>  <Molecule ChEMBL ID>
CHEMBL1276308

>  <Molecule Name>
MIFEPRISTONE

>  <Molecule Max Phase>
4

>  <Molecular Weight>
429.6

>  <#RO5 Violations>
1

>  <AlogP>
5.41

>  <Compound Key>
1

>  <Standard Type>
IC50

>  <Standard Relation>
'='

>  <Standard Value>
1500.0

>  <Standard Units>
nM

$$$$

  Mrv2114 03112311372D          

 20 22  0  0  1  0            999 V2000
    3.4656   -2.9491    0.0000 O   0  0  0  0  0  0  0  0  0  0  0  0
    3.4656   -3.7741    0.0000 C   0  0  0  0  0  0  0  0  0  0  0  0
    4.1331   -4.2590    0.0000 C   0  0  0  0  0  0  0  0  0  0  0  0
    3.8781   -5.0437    0.0000 C   0  0  0  0  0  0  0  0  0  0  0  0
    4.3631   -5.7111    0.0000 C   0  0  1  0  0  0  0  0  0  0  0  0
    5.1836   -5.6249    0.0000 C   0  0  0  0  0  0  0  0  0  0  0  0
    5.6685   -6.2923    0.0000 C   0  0  0  0  0  0  0  0  0  0  0  0
    5.3329   -7.0460    0.0000 N   0  0  0  0  0  0  0  0  0  0  0  0
    4.5124   -7.1322    0.0000 C   0  0  1  0  0  0  0  0  0  0  0  0
    4.1769   -7.8859    0.0000 C   0  0  0  0  0  0  0  0  0  0  0  0
    4.6618   -8.5533    0.0000 C   0  0  0  0  0  0  0  0  0  0  0  0
    4.3262   -9.3070    0.0000 C   0  0  0  0  0  0  0  0  0  0  0  0
    4.8112   -9.9744    0.0000 C   0  0  0  0  0  0  0  0  0  0  0  0
    4.4756  -10.7281    0.0000 C   0  0  0  0  0  0  0  0  0  0  0  0
    3.6551  -10.8143    0.0000 C   0  0  0  0  0  0  0  0  0  0  0  0
    3.1702  -10.1469    0.0000 C   0  0  0  0  0  0  0  0  0  0  0  0
    3.5058   -9.3932    0.0000 C   0  0  0  0  0  0  0  0  0  0  0  0
    4.0275   -6.4648    0.0000 C   0  0  0  0  0  0  0  0  0  0  0  0
    3.0531   -5.0437    0.0000 O   0  0  0  0  0  0  0  0  0  0  0  0
    2.7982   -4.2590    0.0000 N   0  0  0  0  0  0  0  0  0  0  0  0
  1  2  2  0  0  0  0
  2  3  4  0  0  0  0
  3  4  4  0  0  0  0
  5  4  1  1  0  0  0
  5  6  1  0  0  0  0
  6  7  1  0  0  0  0
  7  8  1  0  0  0  0
  9  8  1  0  0  0  0
  9 10  1  1  0  0  0
 10 11  1  0  0  0  0
 11 12  1  0  0  0  0
 12 13  4  0  0  0  0
 13 14  4  0  0  0  0
 14 15  4  0  0  0  0
 15 16  4  0  0  0  0
 16 17  4  0  0  0  0
 12 17  4  0  0  0  0
  9 18  1  0  0  0  0
  5 18  1  0  0  0  0
  4 19  4  0  0  0  0
 19 20  4  0  0  0  0
  2 20  4  0  0  0  0
M  STY  1   1 DAT
M  SAL   1  1  20
M  SDT   1 MRV_IMPLICIT_H                                        
M  SDD   1     0.0000    0.0000    DR    ALL  0       0  
M  SED   1 IMPL_H1
M  END
>  <CdId>
137

>  <Mol Weight>
272.348

>  <Formula>
C16H20N2O2

>  <Molecule ChEMBL ID>
CHEMBL3287854

>  <Molecule Max Phase>
None

>  <Molecular Weight>
272.35

>  <#RO5 Violations>
0

>  <AlogP>
2.44

>  <Compound Key>
22

>  <Standard Type>
IC50

>  <Standard Relation>
'>'

>  <Standard Value>
2.0E7

>  <Standard Units>
nM

$$$$

  Mrv2114 03112311372D          

 36 39  0  0  1  0            999 V2000
   -5.0013    8.4161    0.0000 C   0  0  0  0  0  0  0  0  0  0  0  0
   -4.2868    8.0036    0.0000 O   0  0  0  0  0  0  0  0  0  0  0  0
   -3.5724    8.4161    0.0000 C   0  0  0  0  0  0  0  0  0  0  0  0
   -3.5724    9.2411    0.0000 C   0  0  0  0  0  0  0  0  0  0  0  0
   -2.8579    9.6536    0.0000 C   0  0  0  0  0  0  0  0  0  0  0  0
   -2.1434    9.2411    0.0000 C   0  0  0  0  0  0  0  0  0  0  0  0
   -1.4289    9.6536    0.0000 F   0  0  0  0  0  0  0  0  0  0  0  0
   -2.1434    8.4161    0.0000 C   0  0  0  0  0  0  0  0  0  0  0  0
   -1.4289    8.0036    0.0000 C   0  0  0  0  0  0  0  0  0  0  0  0
   -0.7145    8.4161    0.0000 C   0  0  0  0  0  0  0  0  0  0  0  0
   -0.0000    8.0036    0.0000 C   0  0  0  0  0  0  0  0  0  0  0  0
   -0.0000    7.1786    0.0000 C   0  0  0  0  0  0  0  0  0  0  0  0
    0.7145    6.7661    0.0000 C   0  0  0  0  0  0  0  0  0  0  0  0
    0.7145    5.9411    0.0000 C   0  0  0  0  0  0  0  0  0  0  0  0
    1.4289    5.5286    0.0000 C   0  0  0  0  0  0  0  0  0  0  0  0
    1.4289    4.7036    0.0000 C   0  0  0  0  0  0  0  0  0  0  0  0
    0.7145    4.2911    0.0000 C   0  0  0  0  0  0  0  0  0  0  0  0
    0.7145    3.4661    0.0000 N   0  0  0  0  0  0  0  0  0  0  0  0
    1.3819    2.9812    0.0000 C   0  0  0  0  0  0  0  0  0  0  0  0
    1.1270    2.1965    0.0000 C   0  0  2  0  0  0  0  0  0  0  0  0
    1.6119    1.5291    0.0000 C   0  0  0  0  0  0  0  0  0  0  0  0
    2.0968    0.8617    0.0000 F   0  0  0  0  0  0  0  0  0  0  0  0
    0.9445    1.0442    0.0000 F   0  0  0  0  0  0  0  0  0  0  0  0
    2.2793    2.0140    0.0000 F   0  0  0  0  0  0  0  0  0  0  0  0
    0.3020    2.1965    0.0000 C   0  0  0  0  0  0  0  0  0  0  0  0
    0.0470    2.9812    0.0000 C   0  0  2  0  0  0  0  0  0  0  0  0
   -0.7376    3.2361    0.0000 C   0  0  0  0  0  0  0  0  0  0  0  0
   -1.3507    2.6841    0.0000 C   0  0  0  0  0  0  0  0  0  0  0  0
   -1.1792    1.8771    0.0000 O   0  0  0  0  0  0  0  0  0  0  0  0
   -2.1353    2.9390    0.0000 O   0  0  0  0  0  0  0  0  0  0  0  0
    0.0000    4.7036    0.0000 C   0  0  0  0  0  0  0  0  0  0  0  0
   -0.0000    5.5286    0.0000 C   0  0  0  0  0  0  0  0  0  0  0  0
   -0.7145    6.7661    0.0000 C   0  0  0  0  0  0  0  0  0  0  0  0
   -0.7145    5.9411    0.0000 C   0  0  0  0  0  0  0  0  0  0  0  0
   -1.4289    7.1786    0.0000 C   0  0  0  0  0  0  0  0  0  0  0  0
   -2.8579    8.0036    0.0000 C   0  0  0  0  0  0  0  0  0  0  0  0
  1  2  1  0  0  0  0
  2  3  1  0  0  0  0
  3  4  4  0  0  0  0
  4  5  4  0  0  0  0
  5  6  4  0  0  0  0
  6  7  1  0  0  0  0
  6  8  4  0  0  0  0
  8  9  1  0  0  0  0
  9 10  4  0  0  0  0
 10 11  4  0  0  0  0
 11 12  4  0  0  0  0
 12 13  1  0  0  0  0
 13 14  1  0  0  0  0
 14 15  4  0  0  0  0
 15 16  4  0  0  0  0
 16 17  4  0  0  0  0
 17 18  1  0  0  0  0
 18 19  1  0  0  0  0
 20 19  1  0  0  0  0
 20 21  1  6  0  0  0
 21 22  1  0  0  0  0
 21 23  1  0  0  0  0
 21 24  1  0  0  0  0
 20 25  1  0  0  0  0
 26 25  1  0  0  0  0
 26 18  1  0  0  0  0
 26 27  1  6  0  0  0
 27 28  1  0  0  0  0
 28 29  2  0  0  0  0
 28 30  1  0  0  0  0
 17 31  4  0  0  0  0
 31 32  4  0  0  0  0
 14 32  4  0  0  0  0
 12 33  4  0  0  0  0
 33 34  1  0  0  0  0
 33 35  4  0  0  0  0
  9 35  4  0  0  0  0
  8 36  4  0  0  0  0
  3 36  4  0  0  0  0
M  END
>  <CdId>
138

>  <Mol Weight>
501.522

>  <Formula>
C28H27F4NO3

>  <Molecule ChEMBL ID>
CHEMBL4083365

>  <Molecule Max Phase>
None

>  <Molecular Weight>
501.52

>  <#RO5 Violations>
2

>  <AlogP>
6.63

>  <Compound Key>
(R,R)-68

>  <Standard Type>
IC50

>  <Standard Relation>
'='

>  <Standard Value>
2100.0

>  <Standard Units>
nM

$$$$

  Mrv2114 03112311372D          

 30 33  0  0  1  0            999 V2000
    2.7845    0.6979    0.0000 C   0  0  0  0  0  0  0  0  0  0  0  0
    2.0701    1.1104    0.0000 C   0  0  1  0  0  0  0  0  0  0  0  0
    1.3556    0.6979    0.0000 C   0  0  0  0  0  0  0  0  0  0  0  0
    0.6411    1.1104    0.0000 C   0  0  0  0  0  0  0  0  0  0  0  0
    0.6411    1.9354    0.0000 C   0  0  0  0  0  0  0  0  0  0  0  0
   -0.1435    2.1904    0.0000 N   0  0  0  0  0  0  0  0  0  0  0  0
   -0.6284    1.5229    0.0000 N   0  0  0  0  0  0  0  0  0  0  0  0
   -0.1435    0.8555    0.0000 N   0  0  0  0  0  0  0  0  0  0  0  0
   -0.3984    0.0709    0.0000 C   0  0  0  0  0  0  0  0  0  0  0  0
    0.1536   -0.5422    0.0000 N   0  0  0  0  0  0  0  0  0  0  0  0
   -0.1014   -1.3268    0.0000 C   0  0  0  0  0  0  0  0  0  0  0  0
   -0.9083   -1.4984    0.0000 C   0  0  0  0  0  0  0  0  0  0  0  0
   -1.1633   -2.2830    0.0000 F   0  0  0  0  0  0  0  0  0  0  0  0
   -1.4604   -0.8853    0.0000 C   0  0  0  0  0  0  0  0  0  0  0  0
   -1.2054   -0.1006    0.0000 N   0  0  0  0  0  0  0  0  0  0  0  0
    1.3556    2.3479    0.0000 C   0  0  0  0  0  0  0  0  0  0  0  0
    2.0701    1.9354    0.0000 N   0  0  0  0  0  0  0  0  0  0  0  0
    2.7845    2.3479    0.0000 C   0  0  0  0  0  0  0  0  0  0  0  0
    3.4990    1.9354    0.0000 O   0  0  0  0  0  0  0  0  0  0  0  0
    2.7845    3.1729    0.0000 C   0  0  0  0  0  0  0  0  0  0  0  0
    2.0701    3.5854    0.0000 C   0  0  0  0  0  0  0  0  0  0  0  0
    2.0701    4.4104    0.0000 C   0  0  0  0  0  0  0  0  0  0  0  0
    2.7845    4.8229    0.0000 N   0  0  0  0  0  0  0  0  0  0  0  0
    3.4990    4.4104    0.0000 C   0  0  0  0  0  0  0  0  0  0  0  0
    4.2135    4.8229    0.0000 C   0  0  0  0  0  0  0  0  0  0  0  0
    4.9279    5.2354    0.0000 F   0  0  0  0  0  0  0  0  0  0  0  0
    4.6260    4.1085    0.0000 F   0  0  0  0  0  0  0  0  0  0  0  0
    3.8010    5.5374    0.0000 F   0  0  0  0  0  0  0  0  0  0  0  0
    3.4990    3.5854    0.0000 C   0  0  0  0  0  0  0  0  0  0  0  0
    4.2135    3.1729    0.0000 F   0  0  0  0  0  0  0  0  0  0  0  0
  2  1  1  1  0  0  0
  2  3  1  0  0  0  0
  3  4  1  0  0  0  0
  4  5  4  0  0  0  0
  5  6  4  0  0  0  0
  6  7  4  0  0  0  0
  7  8  4  0  0  0  0
  4  8  4  0  0  0  0
  8  9  1  0  0  0  0
  9 10  4  0  0  0  0
 10 11  4  0  0  0  0
 11 12  4  0  0  0  0
 12 13  1  0  0  0  0
 12 14  4  0  0  0  0
 14 15  4  0  0  0  0
  9 15  4  0  0  0  0
  5 16  1  0  0  0  0
 16 17  1  0  0  0  0
  2 17  1  0  0  0  0
 17 18  1  0  0  0  0
 18 19  2  0  0  0  0
 18 20  1  0  0  0  0
 20 21  4  0  0  0  0
 21 22  4  0  0  0  0
 22 23  4  0  0  0  0
 23 24  4  0  0  0  0
 24 25  1  0  0  0  0
 25 26  1  0  0  0  0
 25 27  1  0  0  0  0
 25 28  1  0  0  0  0
 24 29  4  0  0  0  0
 20 29  4  0  0  0  0
 29 30  1  0  0  0  0
M  END
>  <CdId>
139

>  <Mol Weight>
425.323

>  <Formula>
C17H12F5N7O

>  <Molecule ChEMBL ID>
CHEMBL3914857

>  <Molecule Max Phase>
None

>  <Molecular Weight>
425.32

>  <#RO5 Violations>
0

>  <AlogP>
2.34

>  <Compound Key>
35

>  <Standard Type>
IC50

>  <Standard Relation>
'>'

>  <Standard Value>
10000.0

>  <Standard Units>
nM

$$$$

  Mrv2114 03112311372D          

 28 31  0  0  1  0            999 V2000
    2.7845    0.6979    0.0000 C   0  0  0  0  0  0  0  0  0  0  0  0
    2.0701    1.1104    0.0000 C   0  0  1  0  0  0  0  0  0  0  0  0
    1.3556    0.6979    0.0000 C   0  0  0  0  0  0  0  0  0  0  0  0
    0.6411    1.1104    0.0000 C   0  0  0  0  0  0  0  0  0  0  0  0
    0.6411    1.9354    0.0000 C   0  0  0  0  0  0  0  0  0  0  0  0
   -0.1435    2.1904    0.0000 N   0  0  0  0  0  0  0  0  0  0  0  0
   -0.6284    1.5229    0.0000 N   0  0  0  0  0  0  0  0  0  0  0  0
   -0.1435    0.8555    0.0000 N   0  0  0  0  0  0  0  0  0  0  0  0
   -0.3984    0.0709    0.0000 C   0  0  0  0  0  0  0  0  0  0  0  0
    0.1536   -0.5422    0.0000 N   0  0  0  0  0  0  0  0  0  0  0  0
   -0.1014   -1.3268    0.0000 C   0  0  0  0  0  0  0  0  0  0  0  0
   -0.9083   -1.4984    0.0000 C   0  0  0  0  0  0  0  0  0  0  0  0
   -1.1633   -2.2830    0.0000 F   0  0  0  0  0  0  0  0  0  0  0  0
   -1.4604   -0.8853    0.0000 C   0  0  0  0  0  0  0  0  0  0  0  0
   -1.2054   -0.1006    0.0000 N   0  0  0  0  0  0  0  0  0  0  0  0
    1.3556    2.3479    0.0000 C   0  0  0  0  0  0  0  0  0  0  0  0
    2.0701    1.9354    0.0000 N   0  0  0  0  0  0  0  0  0  0  0  0
    2.7845    2.3479    0.0000 C   0  0  0  0  0  0  0  0  0  0  0  0
    3.4990    1.9354    0.0000 O   0  0  0  0  0  0  0  0  0  0  0  0
    2.7845    3.1729    0.0000 C   0  0  0  0  0  0  0  0  0  0  0  0
    2.1171    3.6579    0.0000 C   0  0  0  0  0  0  0  0  0  0  0  0
    2.3720    4.4425    0.0000 N   0  0  0  0  0  0  0  0  0  0  0  0
    3.1970    4.4425    0.0000 N   0  0  0  0  0  0  0  0  0  0  0  0
    3.4520    3.6579    0.0000 C   0  0  0  0  0  0  0  0  0  0  0  0
    4.2366    3.4029    0.0000 C   0  0  0  0  0  0  0  0  0  0  0  0
    5.0212    3.1480    0.0000 F   0  0  0  0  0  0  0  0  0  0  0  0
    3.9816    2.6183    0.0000 F   0  0  0  0  0  0  0  0  0  0  0  0
    4.4915    4.1875    0.0000 F   0  0  0  0  0  0  0  0  0  0  0  0
  2  1  1  1  0  0  0
  2  3  1  0  0  0  0
  3  4  1  0  0  0  0
  4  5  4  0  0  0  0
  5  6  4  0  0  0  0
  6  7  4  0  0  0  0
  7  8  4  0  0  0  0
  4  8  4  0  0  0  0
  8  9  1  0  0  0  0
  9 10  4  0  0  0  0
 10 11  4  0  0  0  0
 11 12  4  0  0  0  0
 12 13  1  0  0  0  0
 12 14  4  0  0  0  0
 14 15  4  0  0  0  0
  9 15  4  0  0  0  0
  5 16  1  0  0  0  0
 16 17  1  0  0  0  0
  2 17  1  0  0  0  0
 17 18  1  0  0  0  0
 18 19  2  0  0  0  0
 18 20  1  0  0  0  0
 20 21  4  0  0  0  0
 21 22  4  0  0  0  0
 22 23  4  0  0  0  0
 23 24  4  0  0  0  0
 20 24  4  0  0  0  0
 24 25  1  0  0  0  0
 25 26  1  0  0  0  0
 25 27  1  0  0  0  0
 25 28  1  0  0  0  0
M  STY  1   1 DAT
M  SAL   1  1  23
M  SDT   1 MRV_IMPLICIT_H                                        
M  SDD   1     0.0000    0.0000    DR    ALL  0       0  
M  SED   1 IMPL_H1
M  END
>  <CdId>
140

>  <Mol Weight>
396.31

>  <Formula>
C15H12F4N8O

>  <Molecule ChEMBL ID>
CHEMBL4084212

>  <Molecule Max Phase>
None

>  <Molecular Weight>
396.31

>  <#RO5 Violations>
0

>  <AlogP>
1.53

>  <Compound Key>
38

>  <Standard Type>
IC50

$$$$

  Mrv2114 03112311372D          

 26 29  0  0  0  0            999 V2000
    6.8513   -2.4750    0.0000 C   0  0  0  0  0  0  0  0  0  0  0  0
    6.1368   -2.8875    0.0000 C   0  0  0  0  0  0  0  0  0  0  0  0
    6.1368   -3.7125    0.0000 C   0  0  0  0  0  0  0  0  0  0  0  0
    5.4223   -4.1250    0.0000 C   0  0  0  0  0  0  0  0  0  0  0  0
    5.4223   -4.9500    0.0000 N   0  0  0  0  0  0  0  0  0  0  0  0
    6.1368   -5.3625    0.0000 C   0  0  0  0  0  0  0  0  0  0  0  0
    6.8513   -4.9500    0.0000 C   0  0  0  0  0  0  0  0  0  0  0  0
    7.5658   -5.3625    0.0000 C   0  0  0  0  0  0  0  0  0  0  0  0
    7.5658   -6.1875    0.0000 C   0  0  0  0  0  0  0  0  0  0  0  0
    8.2802   -6.6000    0.0000 C   0  0  0  0  0  0  0  0  0  0  0  0
    8.2802   -7.4250    0.0000 C   0  0  0  0  0  0  0  0  0  0  0  0
    8.9947   -7.8375    0.0000 Cl  0  0  0  0  0  0  0  0  0  0  0  0
    7.5658   -7.8375    0.0000 C   0  0  0  0  0  0  0  0  0  0  0  0
    6.8513   -7.4250    0.0000 C   0  0  0  0  0  0  0  0  0  0  0  0
    6.8513   -6.6000    0.0000 C   0  0  0  0  0  0  0  0  0  0  0  0
    6.1368   -6.1875    0.0000 C   0  0  0  0  0  0  0  0  0  0  0  0
    4.7079   -3.7125    0.0000 N   0  0  0  0  0  0  0  0  0  0  0  0
    3.9232   -3.9674    0.0000 N   0  0  0  0  0  0  0  0  0  0  0  0
    3.4383   -3.3000    0.0000 C   0  0  0  0  0  0  0  0  0  0  0  0
    2.6133   -3.3000    0.0000 C   0  0  0  0  0  0  0  0  0  0  0  0
    1.7883   -3.3000    0.0000 C   0  0  0  0  0  0  0  0  0  0  0  0
    2.6133   -2.4750    0.0000 F   0  0  0  0  0  0  0  0  0  0  0  0
    2.6133   -4.1250    0.0000 F   0  0  0  0  0  0  0  0  0  0  0  0
    3.9232   -2.6326    0.0000 N   0  0  0  0  0  0  0  0  0  0  0  0
    4.7079   -2.8875    0.0000 C   0  0  0  0  0  0  0  0  0  0  0  0
    5.4223   -2.4750    0.0000 N   0  0  0  0  0  0  0  0  0  0  0  0
  1  2  1  0  0  0  0
  2  3  4  0  0  0  0
  3  4  4  0  0  0  0
  4  5  1  0  0  0  0
  5  6  1  0  0  0  0
  6  7  1  0  0  0  0
  7  8  1  0  0  0  0
  8  9  1  0  0  0  0
  9 10  4  0  0  0  0
 10 11  4  0  0  0  0
 11 12  1  0  0  0  0
 11 13  4  0  0  0  0
 13 14  4  0  0  0  0
 14 15  4  0  0  0  0
  9 15  4  0  0  0  0
 15 16  1  0  0  0  0
  6 16  1  0  0  0  0
  4 17  4  0  0  0  0
 17 18  4  0  0  0  0
 18 19  4  0  0  0  0
 19 20  1  0  0  0  0
 20 21  1  0  0  0  0
 20 22  1  0  0  0  0
 20 23  1  0  0  0  0
 19 24  4  0  0  0  0
 24 25  4  0  0  0  0
 17 25  4  0  0  0  0
 25 26  4  0  0  0  0
  2 26  4  0  0  0  0
M  END
>  <CdId>
141

>  <Mol Weight>
377.82

>  <Formula>
C18H18ClF2N5

>  <Molecule ChEMBL ID>
CHEMBL4761666

>  <Molecule Max Phase>
None

>  <Molecular Weight>
377.83

>  <#RO5 Violations>
0

>  <AlogP>
4.17

>  <Compound Key>
7; DSM424

>  <Standard Type>
IC50

>  <Standard Relation>
'>'

>  <Standard Value>
20000.0

>  <Standard Units>
nM

$$$$

  Mrv2114 03112311372D          

 40 44  0  0  0  0            999 V2000
    3.4656   -5.4241    0.0000 C   0  0  0  0  0  0  0  0  0  0  0  0
    3.4656   -6.2491    0.0000 C   0  0  0  0  0  0  0  0  0  0  0  0
    4.1801   -6.6616    0.0000 C   0  0  0  0  0  0  0  0  0  0  0  0
    4.1801   -7.4866    0.0000 C   0  0  0  0  0  0  0  0  0  0  0  0
    3.4656   -7.8991    0.0000 C   0  0  0  0  0  0  0  0  0  0  0  0
    3.4656   -8.7241    0.0000 N   0  0  0  0  0  0  0  0  0  0  0  0
    2.7982   -9.2090    0.0000 N   0  0  0  0  0  0  0  0  0  0  0  0
    3.0531   -9.9937    0.0000 C   0  0  0  0  0  0  0  0  0  0  0  0
    2.5682  -10.6611    0.0000 C   0  0  0  0  0  0  0  0  0  0  0  0
    2.0833  -11.3285    0.0000 C   0  0  0  0  0  0  0  0  0  0  0  0
    1.9008  -10.1762    0.0000 C   0  0  0  0  0  0  0  0  0  0  0  0
    3.2357  -11.1460    0.0000 C   0  0  0  0  0  0  0  0  0  0  0  0
    3.8781   -9.9937    0.0000 C   0  0  0  0  0  0  0  0  0  0  0  0
    4.1331   -9.2090    0.0000 C   0  0  0  0  0  0  0  0  0  0  0  0
    4.9177   -8.9541    0.0000 N   0  0  0  0  0  0  0  0  0  0  0  0
    5.5308   -9.5061    0.0000 C   0  0  0  0  0  0  0  0  0  0  0  0
    5.3593  -10.3131    0.0000 O   0  0  0  0  0  0  0  0  0  0  0  0
    6.3154   -9.2512    0.0000 N   0  0  0  0  0  0  0  0  0  0  0  0
    6.9285   -9.8032    0.0000 C   0  0  0  0  0  0  0  0  0  0  0  0
    7.7131   -9.5483    0.0000 C   0  0  0  0  0  0  0  0  0  0  0  0
    8.3262  -10.1003    0.0000 C   0  0  0  0  0  0  0  0  0  0  0  0
    8.1547  -10.9073    0.0000 C   0  0  0  0  0  0  0  0  0  0  0  0
    8.7678  -11.4593    0.0000 C   0  0  0  0  0  0  0  0  0  0  0  0
    9.5524  -11.2044    0.0000 C   0  0  0  0  0  0  0  0  0  0  0  0
   10.1655  -11.7564    0.0000 C   0  0  0  0  0  0  0  0  0  0  0  0
    9.9940  -12.5634    0.0000 C   0  0  0  0  0  0  0  0  0  0  0  0
   10.6071  -13.1154    0.0000 O   0  0  0  0  0  0  0  0  0  0  0  0
   11.3917  -12.8605    0.0000 C   0  0  0  0  0  0  0  0  0  0  0  0
   12.0048  -13.4125    0.0000 C   0  0  0  0  0  0  0  0  0  0  0  0
   12.7894  -13.1576    0.0000 C   0  0  0  0  0  0  0  0  0  0  0  0
   13.4025  -13.7096    0.0000 C   0  0  0  0  0  0  0  0  0  0  0  0
   13.2310  -14.5166    0.0000 C   0  0  0  0  0  0  0  0  0  0  0  0
   12.4464  -14.7715    0.0000 C   0  0  0  0  0  0  0  0  0  0  0  0
   11.8333  -14.2195    0.0000 C   0  0  0  0  0  0  0  0  0  0  0  0
    9.2094  -12.8183    0.0000 N   0  0  0  0  0  0  0  0  0  0  0  0
    8.5963  -12.2663    0.0000 C   0  0  0  0  0  0  0  0  0  0  0  0
    7.3701  -11.1622    0.0000 C   0  0  0  0  0  0  0  0  0  0  0  0
    6.7570  -10.6102    0.0000 C   0  0  0  0  0  0  0  0  0  0  0  0
    2.7512   -7.4866    0.0000 C   0  0  0  0  0  0  0  0  0  0  0  0
    2.7512   -6.6616    0.0000 C   0  0  0  0  0  0  0  0  0  0  0  0
  1  2  1  0  0  0  0
  2  3  4  0  0  0  0
  3  4  4  0  0  0  0
  4  5  4  0  0  0  0
  5  6  1  0  0  0  0
  6  7  4  0  0  0  0
  7  8  4  0  0  0  0
  8  9  1  0  0  0  0
  9 10  1  0  0  0  0
  9 11  1  0  0  0  0
  9 12  1  0  0  0  0
  8 13  4  0  0  0  0
 13 14  4  0  0  0  0
  6 14  4  0  0  0  0
 14 15  1  0  0  0  0
 15 16  1  0  0  0  0
 16 17  2  0  0  0  0
 16 18  1  0  0  0  0
 18 19  1  0  0  0  0
 19 20  4  0  0  0  0
 20 21  4  0  0  0  0
 21 22  4  0  0  0  0
 22 23  1  0  0  0  0
 23 24  4  0  0  0  0
 24 25  4  0  0  0  0
 25 26  4  0  0  0  0
 26 27  1  0  0  0  0
 27 28  1  0  0  0  0
 28 29  1  0  0  0  0
 29 30  4  0  0  0  0
 30 31  4  0  0  0  0
 31 32  4  0  0  0  0
 32 33  4  0  0  0  0
 33 34  4  0  0  0  0
 29 34  4  0  0  0  0
 26 35  4  0  0  0  0
 35 36  4  0  0  0  0
 23 36  4  0  0  0  0
 22 37  4  0  0  0  0
 37 38  4  0  0  0  0
 19 38  4  0  0  0  0
  5 39  4  0  0  0  0
 39 40  4  0  0  0  0
  2 40  4  0  0  0  0
M  END
>  <CdId>
142

>  <Mol Weight>
531.66

>  <Formula>
C33H33N5O2

>  <Molecule ChEMBL ID>
CHEMBL2425161

>  <Molecule Max Phase>
None

>  <Molecular Weight>
531.66

>  <#RO5 Violations>
2

>  <AlogP>
7.76

>  <Compound Key>
32

>  <Standard Type>
IC50

>  <Standard Relation>
'>'

>  <Standard Value>
10000.0

>  <Standard Units>
nM

$$$$

  Mrv2114 03112311372D          

 37 41  0  0  0  0            999 V2000
    4.8946    1.8777    0.0000 C   0  0  0  0  0  0  0  0  0  0  0  0
    4.8946    1.0527    0.0000 N   0  0  0  0  0  0  0  0  0  0  0  0
    5.5620    0.5678    0.0000 C   0  0  0  0  0  0  0  0  0  0  0  0
    5.3071   -0.2169    0.0000 C   0  0  0  0  0  0  0  0  0  0  0  0
    5.7920   -0.8843    0.0000 C   0  0  0  0  0  0  0  0  0  0  0  0
    6.6125   -0.7981    0.0000 C   0  0  0  0  0  0  0  0  0  0  0  0
    7.0974   -1.4655    0.0000 C   0  0  0  0  0  0  0  0  0  0  0  0
    6.7619   -2.2192    0.0000 C   0  0  0  0  0  0  0  0  0  0  0  0
    7.2468   -2.8866    0.0000 F   0  0  0  0  0  0  0  0  0  0  0  0
    5.9414   -2.3054    0.0000 C   0  0  0  0  0  0  0  0  0  0  0  0
    5.6058   -3.0591    0.0000 C   0  0  0  0  0  0  0  0  0  0  0  0
    5.2703   -3.8128    0.0000 F   0  0  0  0  0  0  0  0  0  0  0  0
    4.8521   -2.7235    0.0000 F   0  0  0  0  0  0  0  0  0  0  0  0
    6.3595   -3.3946    0.0000 F   0  0  0  0  0  0  0  0  0  0  0  0
    5.4565   -1.6380    0.0000 C   0  0  0  0  0  0  0  0  0  0  0  0
    4.4821   -0.2169    0.0000 N   0  0  0  0  0  0  0  0  0  0  0  0
    4.2272    0.5678    0.0000 C   0  0  0  0  0  0  0  0  0  0  0  0
    3.4425    0.8227    0.0000 C   0  0  0  0  0  0  0  0  0  0  0  0
    2.8294    0.2707    0.0000 C   0  0  0  0  0  0  0  0  0  0  0  0
    2.0448    0.5256    0.0000 C   0  0  0  0  0  0  0  0  0  0  0  0
    1.8733    1.3326    0.0000 N   0  0  0  0  0  0  0  0  0  0  0  0
    1.0887    1.5875    0.0000 C   0  0  0  0  0  0  0  0  0  0  0  0
    0.4756    1.0355    0.0000 N   0  0  0  0  0  0  0  0  0  0  0  0
   -0.3091    1.2904    0.0000 C   0  0  0  0  0  0  0  0  0  0  0  0
   -0.4806    2.0974    0.0000 N   0  0  0  0  0  0  0  0  0  0  0  0
    0.1325    2.6494    0.0000 C   0  0  0  0  0  0  0  0  0  0  0  0
   -0.0390    3.4564    0.0000 N   0  0  0  0  0  0  0  0  0  0  0  0
    0.9171    2.3945    0.0000 C   0  0  0  0  0  0  0  0  0  0  0  0
    1.5302    2.9465    0.0000 C   0  0  0  0  0  0  0  0  0  0  0  0
    1.3587    3.7535    0.0000 C   0  0  0  0  0  0  0  0  0  0  0  0
    1.9718    4.3055    0.0000 C   0  0  0  0  0  0  0  0  0  0  0  0
    2.7564    4.0506    0.0000 C   0  0  0  0  0  0  0  0  0  0  0  0
    3.3695    4.6026    0.0000 F   0  0  0  0  0  0  0  0  0  0  0  0
    2.9279    3.2436    0.0000 C   0  0  0  0  0  0  0  0  0  0  0  0
    2.3149    2.6916    0.0000 C   0  0  0  0  0  0  0  0  0  0  0  0
    2.4864    1.8846    0.0000 C   0  0  0  0  0  0  0  0  0  0  0  0
    3.2710    1.6297    0.0000 C   0  0  0  0  0  0  0  0  0  0  0  0
  1  2  1  0  0  0  0
  2  3  4  0  0  0  0
  3  4  4  0  0  0  0
  4  5  1  0  0  0  0
  5  6  4  0  0  0  0
  6  7  4  0  0  0  0
  7  8  4  0  0  0  0
  8  9  1  0  0  0  0
  8 10  4  0  0  0  0
 10 11  1  0  0  0  0
 11 12  1  0  0  0  0
 11 13  1  0  0  0  0
 11 14  1  0  0  0  0
 10 15  4  0  0  0  0
  5 15  4  0  0  0  0
  4 16  4  0  0  0  0
 16 17  4  0  0  0  0
  2 17  4  0  0  0  0
 17 18  1  0  0  0  0
 18 19  1  0  0  0  0
 19 20  1  0  0  0  0
 20 21  1  0  0  0  0
 21 22  1  0  0  0  0
 22 23  4  0  0  0  0
 23 24  4  0  0  0  0
 24 25  4  0  0  0  0
 25 26  4  0  0  0  0
 26 27  1  0  0  0  0
 26 28  4  0  0  0  0
 22 28  4  0  0  0  0
 28 29  1  0  0  0  0
 29 30  4  0  0  0  0
 30 31  4  0  0  0  0
 31 32  4  0  0  0  0
 32 33  1  0  0  0  0
 32 34  4  0  0  0  0
 34 35  4  0  0  0  0
 29 35  4  0  0  0  0
 21 36  1  0  0  0  0
 36 37  1  0  0  0  0
 18 37  1  0  0  0  0
M  END
>  <CdId>
143

>  <Mol Weight>
514.504

>  <Formula>
C26H23F5N6

>  <Molecule ChEMBL ID>
CHEMBL3925871

>  <Molecule Max Phase>
None

>  <Molecular Weight>
514.5

>  <#RO5 Violations>
2

>  <AlogP>
5.81

>  <Compound Key>
21

>  <Standard Type>
IC50

>  <Standard Relation>
'>'

>  <Standard Value>
20000.0

>  <Standard Units>
nM

$$$$

  Mrv2114 03112311372D          

 37 41  0  0  1  0            999 V2000
   -7.0582   -0.1664    0.0000 C   0  0  0  0  0  0  0  0  0  0  0  0
   -6.3907    0.3185    0.0000 C   0  0  0  0  0  0  0  0  0  0  0  0
   -6.3907    1.1435    0.0000 N   0  0  0  0  0  0  0  0  0  0  0  0
   -5.6061    1.3984    0.0000 C   0  0  0  0  0  0  0  0  0  0  0  0
   -5.1212    0.7310    0.0000 N   0  0  0  0  0  0  0  0  0  0  0  0
   -4.2962    0.7310    0.0000 C   0  0  0  0  0  0  0  0  0  0  0  0
   -3.8837    1.4455    0.0000 C   0  0  0  0  0  0  0  0  0  0  0  0
   -3.0587    1.4455    0.0000 C   0  0  0  0  0  0  0  0  0  0  0  0
   -2.6462    2.1599    0.0000 Cl  0  0  0  0  0  0  0  0  0  0  0  0
   -2.6462    0.7310    0.0000 C   0  0  0  0  0  0  0  0  0  0  0  0
   -1.8212    0.7310    0.0000 C   0  0  0  0  0  0  0  0  0  0  0  0
   -1.4087    1.4455    0.0000 O   0  0  0  0  0  0  0  0  0  0  0  0
   -1.4087    0.0165    0.0000 N   0  0  0  0  0  0  0  0  0  0  0  0
   -0.5837    0.0165    0.0000 C   0  0  0  0  0  0  0  0  0  0  0  0
   -0.1712   -0.6979    0.0000 C   0  0  1  0  0  0  0  0  0  0  0  0
   -0.5837   -1.4124    0.0000 C   0  0  0  0  0  0  0  0  0  0  0  0
   -0.1712   -2.1269    0.0000 C   0  0  0  0  0  0  0  0  0  0  0  0
   -0.5837   -2.8414    0.0000 C   0  0  0  0  0  0  0  0  0  0  0  0
   -1.4087   -2.8414    0.0000 C   0  0  0  0  0  0  0  0  0  0  0  0
   -1.8212   -2.1269    0.0000 C   0  0  0  0  0  0  0  0  0  0  0  0
   -2.6462   -2.1269    0.0000 F   0  0  0  0  0  0  0  0  0  0  0  0
   -1.4087   -1.4124    0.0000 C   0  0  0  0  0  0  0  0  0  0  0  0
    0.6538   -0.6979    0.0000 C   0  0  0  0  0  0  0  0  0  0  0  0
    1.1387   -0.0305    0.0000 N   0  0  0  0  0  0  0  0  0  0  0  0
    1.9233   -0.2854    0.0000 C   0  0  0  0  0  0  0  0  0  0  0  0
    2.6378    0.1271    0.0000 C   0  0  0  0  0  0  0  0  0  0  0  0
    2.6378    0.9521    0.0000 C   0  0  0  0  0  0  0  0  0  0  0  0
    3.3523   -0.2854    0.0000 C   0  0  0  0  0  0  0  0  0  0  0  0
    3.3523   -1.1104    0.0000 C   0  0  0  0  0  0  0  0  0  0  0  0
    4.0668   -1.5229    0.0000 Cl  0  0  0  0  0  0  0  0  0  0  0  0
    2.6378   -1.5229    0.0000 C   0  0  0  0  0  0  0  0  0  0  0  0
    1.9233   -1.1104    0.0000 C   0  0  0  0  0  0  0  0  0  0  0  0
    1.1387   -1.3654    0.0000 N   0  0  0  0  0  0  0  0  0  0  0  0
   -3.0587    0.0165    0.0000 C   0  0  0  0  0  0  0  0  0  0  0  0
   -2.6462   -0.6979    0.0000 Cl  0  0  0  0  0  0  0  0  0  0  0  0
   -3.8837    0.0165    0.0000 C   0  0  0  0  0  0  0  0  0  0  0  0
   -5.6061    0.0636    0.0000 N   0  0  0  0  0  0  0  0  0  0  0  0
  1  2  1  0  0  0  0
  2  3  4  0  0  0  0
  3  4  4  0  0  0  0
  4  5  4  0  0  0  0
  5  6  1  0  0  0  0
  6  7  4  0  0  0  0
  7  8  4  0  0  0  0
  8  9  1  0  0  0  0
  8 10  4  0  0  0  0
 10 11  1  0  0  0  0
 11 12  2  0  0  0  0
 11 13  1  0  0  0  0
 13 14  1  0  0  0  0
 15 14  1  6  0  0  0
 15 16  1  0  0  0  0
 16 17  4  0  0  0  0
 17 18  4  0  0  0  0
 18 19  4  0  0  0  0
 19 20  4  0  0  0  0
 20 21  1  0  0  0  0
 20 22  4  0  0  0  0
 16 22  4  0  0  0  0
 15 23  1  0  0  0  0
 23 24  4  0  0  0  0
 24 25  4  0  0  0  0
 25 26  4  0  0  0  0
 26 27  1  0  0  0  0
 26 28  4  0  0  0  0
 28 29  4  0  0  0  0
 29 30  1  0  0  0  0
 29 31  4  0  0  0  0
 31 32  4  0  0  0  0
 25 32  4  0  0  0  0
 32 33  4  0  0  0  0
 23 33  4  0  0  0  0
 10 34  4  0  0  0  0
 34 35  1  0  0  0  0
 34 36  4  0  0  0  0
  6 36  4  0  0  0  0
  5 37  4  0  0  0  0
  2 37  4  0  0  0  0
M  STY  1   1 DAT
M  SAL   1  1  33
M  SDT   1 MRV_IMPLICIT_H                                        
M  SDD   1     0.0000    0.0000    DR    ALL  0       0  
M  SED   1 IMPL_H1
M  END
>  <CdId>
144

>  <Mol Weight>
557.84

>  <Formula>
C26H20Cl3FN6O

>  <Molecule ChEMBL ID>
CHEMBL3627896

>  <Molecule Max Phase>
None

>  <Molecular Weight>
557.84

>  <#RO5 Violations>
2

>  <AlogP>
6.42

>  <Compound Key>
26

>  <Standard Type>
IC50

>  <Standard Relation>
'='

>  <Standard Value>
4043.0

>  <Standard Units>
nM

$$$$

  Mrv2114 03112311372D          

 38 42  0  0  1  0            999 V2000
    3.4990    1.1104    0.0000 C   0  0  0  0  0  0  0  0  0  0  0  0
    2.7845    0.6979    0.0000 O   0  0  0  0  0  0  0  0  0  0  0  0
    2.0701    1.1104    0.0000 C   0  0  0  0  0  0  0  0  0  0  0  0
    1.3556    0.6979    0.0000 C   0  0  0  0  0  0  0  0  0  0  0  0
    0.6411    1.1104    0.0000 C   0  0  0  0  0  0  0  0  0  0  0  0
   -0.1435    0.8555    0.0000 N   0  0  0  0  0  0  0  0  0  0  0  0
   -0.6284    1.5229    0.0000 C   0  0  0  0  0  0  0  0  0  0  0  0
   -1.4534    1.5229    0.0000 C   0  0  1  0  0  0  0  0  0  0  0  0
   -1.8659    0.8085    0.0000 C   0  0  0  0  0  0  0  0  0  0  0  0
   -2.6909    0.8085    0.0000 N   0  0  0  0  0  0  0  0  0  0  0  0
   -3.1034    0.0940    0.0000 C   0  0  0  0  0  0  0  0  0  0  0  0
   -2.6909   -0.6205    0.0000 O   0  0  0  0  0  0  0  0  0  0  0  0
   -3.9284    0.0940    0.0000 C   0  0  0  0  0  0  0  0  0  0  0  0
   -4.3409   -0.6205    0.0000 C   0  0  0  0  0  0  0  0  0  0  0  0
   -3.9284   -1.3349    0.0000 Cl  0  0  0  0  0  0  0  0  0  0  0  0
   -5.1659   -0.6205    0.0000 C   0  0  0  0  0  0  0  0  0  0  0  0
   -5.5784    0.0940    0.0000 C   0  0  0  0  0  0  0  0  0  0  0  0
   -6.4034    0.0940    0.0000 N   0  0  0  0  0  0  0  0  0  0  0  0
   -6.8884   -0.5734    0.0000 C   0  0  0  0  0  0  0  0  0  0  0  0
   -7.6730   -0.3185    0.0000 N   0  0  0  0  0  0  0  0  0  0  0  0
   -7.6730    0.5065    0.0000 C   0  0  0  0  0  0  0  0  0  0  0  0
   -8.3404    0.9914    0.0000 C   0  0  0  0  0  0  0  0  0  0  0  0
   -6.8884    0.7614    0.0000 N   0  0  0  0  0  0  0  0  0  0  0  0
   -5.1659    0.8085    0.0000 C   0  0  0  0  0  0  0  0  0  0  0  0
   -4.3409    0.8085    0.0000 C   0  0  0  0  0  0  0  0  0  0  0  0
   -3.9284    1.5229    0.0000 Cl  0  0  0  0  0  0  0  0  0  0  0  0
   -1.8659    2.2374    0.0000 C   0  0  0  0  0  0  0  0  0  0  0  0
   -2.6909    2.2374    0.0000 C   0  0  0  0  0  0  0  0  0  0  0  0
   -3.1034    2.9519    0.0000 C   0  0  0  0  0  0  0  0  0  0  0  0
   -2.6909    3.6664    0.0000 C   0  0  0  0  0  0  0  0  0  0  0  0
   -1.8659    3.6664    0.0000 C   0  0  0  0  0  0  0  0  0  0  0  0
   -1.4534    4.3808    0.0000 F   0  0  0  0  0  0  0  0  0  0  0  0
   -1.4534    2.9519    0.0000 C   0  0  0  0  0  0  0  0  0  0  0  0
   -0.1435    2.1904    0.0000 N   0  0  0  0  0  0  0  0  0  0  0  0
    0.6411    1.9354    0.0000 C   0  0  0  0  0  0  0  0  0  0  0  0
    1.3556    2.3479    0.0000 C   0  0  0  0  0  0  0  0  0  0  0  0
    2.0701    1.9354    0.0000 C   0  0  0  0  0  0  0  0  0  0  0  0
    2.7845    2.3479    0.0000 Cl  0  0  0  0  0  0  0  0  0  0  0  0
  1  2  1  0  0  0  0
  2  3  1  0  0  0  0
  3  4  4  0  0  0  0
  4  5  4  0  0  0  0
  5  6  4  0  0  0  0
  6  7  4  0  0  0  0
  8  7  1  0  0  0  0
  8  9  1  1  0  0  0
  9 10  1  0  0  0  0
 10 11  1  0  0  0  0
 11 12  2  0  0  0  0
 11 13  1  0  0  0  0
 13 14  4  0  0  0  0
 14 15  1  0  0  0  0
 14 16  4  0  0  0  0
 16 17  4  0  0  0  0
 17 18  1  0  0  0  0
 18 19  4  0  0  0  0
 19 20  4  0  0  0  0
 20 21  4  0  0  0  0
 21 22  1  0  0  0  0
 21 23  4  0  0  0  0
 18 23  4  0  0  0  0
 17 24  4  0  0  0  0
 24 25  4  0  0  0  0
 13 25  4  0  0  0  0
 25 26  1  0  0  0  0
  8 27  1  0  0  0  0
 27 28  4  0  0  0  0
 28 29  4  0  0  0  0
 29 30  4  0  0  0  0
 30 31  4  0  0  0  0
 31 32  1  0  0  0  0
 31 33  4  0  0  0  0
 27 33  4  0  0  0  0
  7 34  4  0  0  0  0
 34 35  4  0  0  0  0
  5 35  4  0  0  0  0
 35 36  4  0  0  0  0
 36 37  4  0  0  0  0
  3 37  4  0  0  0  0
 37 38  1  0  0  0  0
M  STY  1   1 DAT
M  SAL   1  1  34
M  SDT   1 MRV_IMPLICIT_H                                        
M  SDD   1     0.0000    0.0000    DR    ALL  0       0  
M  SED   1 IMPL_H1
M  END
>  <CdId>
145

>  <Mol Weight>
573.83

>  <Formula>
C26H20Cl3FN6O2

>  <Molecule ChEMBL ID>
CHEMBL3627894

>  <Molecule Max Phase>
None

>  <Molecular Weight>
573.84

>  <#RO5 Violations>
2

>  <AlogP>
6.12

>  <Compound Key>
24

>  <Standard Type>
IC50

>  <Standard Relation>
'='

>  <Standard Value>
456.0

>  <Standard Units>
nM

$$$$

  Mrv2114 03112311372D          

 33 36  0  0  0  0            999 V2000
   -2.8579   -1.6500    0.0000 C   0  0  0  0  0  0  0  0  0  0  0  0
   -2.1434   -1.2375    0.0000 O   0  0  0  0  0  0  0  0  0  0  0  0
   -1.4289   -1.6500    0.0000 C   0  0  0  0  0  0  0  0  0  0  0  0
   -0.7145   -1.2375    0.0000 C   0  0  0  0  0  0  0  0  0  0  0  0
    0.0000   -1.6500    0.0000 C   0  0  0  0  0  0  0  0  0  0  0  0
    0.7145   -1.2375    0.0000 N   0  0  0  0  0  0  0  0  0  0  0  0
    0.7145   -0.4125    0.0000 C   0  0  0  0  0  0  0  0  0  0  0  0
    0.0000    0.0000    0.0000 O   0  0  0  0  0  0  0  0  0  0  0  0
    1.4289    0.0000    0.0000 N   0  0  0  0  0  0  0  0  0  0  0  0
    1.4289    0.8250    0.0000 C   0  0  0  0  0  0  0  0  0  0  0  0
    0.7145    1.2375    0.0000 C   0  0  0  0  0  0  0  0  0  0  0  0
    0.0000    0.8250    0.0000 C   0  0  0  0  0  0  0  0  0  0  0  0
   -0.4849    0.1576    0.0000 F   0  0  0  0  0  0  0  0  0  0  0  0
   -0.7145    1.2375    0.0000 C   0  0  0  0  0  0  0  0  0  0  0  0
   -0.7145    2.0625    0.0000 C   0  0  0  0  0  0  0  0  0  0  0  0
   -1.4289    2.4750    0.0000 F   0  0  0  0  0  0  0  0  0  0  0  0
    0.0000    2.4750    0.0000 C   0  0  0  0  0  0  0  0  0  0  0  0
    0.7145    2.0625    0.0000 C   0  0  0  0  0  0  0  0  0  0  0  0
    1.4289    2.4750    0.0000 F   0  0  0  0  0  0  0  0  0  0  0  0
    2.1434   -0.4125    0.0000 C   0  0  0  0  0  0  0  0  0  0  0  0
    2.8579    0.0000    0.0000 N   0  0  0  0  0  0  0  0  0  0  0  0
    3.5724   -0.4125    0.0000 C   0  0  0  0  0  0  0  0  0  0  0  0
    3.5724   -1.2375    0.0000 C   0  0  0  0  0  0  0  0  0  0  0  0
    2.8579   -1.6500    0.0000 C   0  0  0  0  0  0  0  0  0  0  0  0
    2.1434   -1.2375    0.0000 C   0  0  0  0  0  0  0  0  0  0  0  0
    1.4289   -1.6500    0.0000 S   0  0  0  0  0  0  0  0  0  0  0  0
    1.8163   -2.3784    0.0000 O   0  0  0  0  0  0  0  0  0  0  0  0
    1.0416   -2.3784    0.0000 O   0  0  0  0  0  0  0  0  0  0  0  0
    0.0000   -2.4750    0.0000 C   0  0  0  0  0  0  0  0  0  0  0  0
   -0.7145   -2.8875    0.0000 N   0  0  0  0  0  0  0  0  0  0  0  0
   -1.4289   -2.4750    0.0000 C   0  0  0  0  0  0  0  0  0  0  0  0
   -2.1434   -2.8875    0.0000 O   0  0  0  0  0  0  0  0  0  0  0  0
   -2.1434   -3.7125    0.0000 C   0  0  0  0  0  0  0  0  0  0  0  0
  1  2  1  0  0  0  0
  2  3  1  0  0  0  0
  3  4  4  0  0  0  0
  4  5  4  0  0  0  0
  5  6  1  0  0  0  0
  6  7  1  0  0  0  0
  7  8  2  0  0  0  0
  7  9  1  0  0  0  0
  9 10  1  0  0  0  0
 10 11  1  0  0  0  0
 11 12  4  0  0  0  0
 12 13  1  0  0  0  0
 12 14  4  0  0  0  0
 14 15  4  0  0  0  0
 15 16  1  0  0  0  0
 15 17  4  0  0  0  0
 17 18  4  0  0  0  0
 11 18  4  0  0  0  0
 18 19  1  0  0  0  0
  9 20  1  0  0  0  0
 20 21  4  0  0  0  0
 21 22  4  0  0  0  0
 22 23  4  0  0  0  0
 23 24  4  0  0  0  0
 24 25  4  0  0  0  0
 20 25  4  0  0  0  0
 25 26  1  0  0  0  0
  6 26  1  0  0  0  0
 26 27  2  0  0  0  0
 26 28  2  0  0  0  0
  5 29  4  0  0  0  0
 29 30  4  0  0  0  0
 30 31  4  0  0  0  0
  3 31  4  0  0  0  0
 31 32  1  0  0  0  0
 32 33  1  0  0  0  0
M  END
>  <CdId>
146

>  <Mol Weight>
480.42

>  <Formula>
C20H15F3N4O5S

>  <Molecule ChEMBL ID>
CHEMBL3740099

>  <Molecule Max Phase>
None

>  <Molecular Weight>
480.42

>  <#RO5 Violations>
0

>  <AlogP>
3.25

>  <Compound Key>
27; HTL6641

>  <Standard Type>
IC50

>  <Standard Relation>
'>'

>  <Standard Value>
10000.0

>  <Standard Units>
nM

$$$$

  Mrv2114 03112311372D          

 19 20  0  0  0  0            999 V2000
    4.2868    0.0000    0.0000 C   0  0  0  0  0  0  0  0  0  0  0  0
    5.0013    0.4125    0.0000 C   0  0  0  0  0  0  0  0  0  0  0  0
    5.0013    1.2375    0.0000 C   0  0  0  0  0  0  0  0  0  0  0  0
    5.7158    0.0000    0.0000 N   0  0  0  0  0  0  0  0  0  0  0  0
    6.4302    0.4125    0.0000 C   0  0  0  0  0  0  0  0  0  0  0  0
    7.1447    0.0000    0.0000 C   0  0  0  0  0  0  0  0  0  0  0  0
    7.1447   -0.8250    0.0000 O   0  0  0  0  0  0  0  0  0  0  0  0
    7.8592    0.4125    0.0000 C   0  0  0  0  0  0  0  0  0  0  0  0
    8.5737    0.0000    0.0000 O   0  0  0  0  0  0  0  0  0  0  0  0
    9.2881    0.4125    0.0000 C   0  0  0  0  0  0  0  0  0  0  0  0
    9.2881    1.2375    0.0000 C   0  0  0  0  0  0  0  0  0  0  0  0
   10.0026    1.6500    0.0000 C   0  0  0  0  0  0  0  0  0  0  0  0
   10.7171    1.2375    0.0000 C   0  0  0  0  0  0  0  0  0  0  0  0
   10.7171    0.4125    0.0000 C   0  0  0  0  0  0  0  0  0  0  0  0
   11.4315    0.0000    0.0000 C   0  0  0  0  0  0  0  0  0  0  0  0
   11.4315   -0.8250    0.0000 C   0  0  0  0  0  0  0  0  0  0  0  0
   10.7171   -1.2375    0.0000 C   0  0  0  0  0  0  0  0  0  0  0  0
   10.0026   -0.8250    0.0000 C   0  0  0  0  0  0  0  0  0  0  0  0
   10.0026    0.0000    0.0000 C   0  0  0  0  0  0  0  0  0  0  0  0
  1  2  1  0  0  0  0
  2  3  1  0  0  0  0
  2  4  1  0  0  0  0
  4  5  1  0  0  0  0
  5  6  1  0  0  0  0
  6  7  1  0  0  0  0
  6  8  1  0  0  0  0
  8  9  1  0  0  0  0
  9 10  1  0  0  0  0
 10 11  4  0  0  0  0
 11 12  4  0  0  0  0
 12 13  4  0  0  0  0
 13 14  4  0  0  0  0
 14 15  4  0  0  0  0
 15 16  4  0  0  0  0
 16 17  4  0  0  0  0
 17 18  4  0  0  0  0
 18 19  4  0  0  0  0
 10 19  4  0  0  0  0
 14 19  4  0  0  0  0
M  END
>  <CdId>
147

>  <Mol Weight>
259.349

>  <Formula>
C16H21NO2

>  <Molecule ChEMBL ID>
CHEMBL27

>  <Molecule Name>
PROPRANOLOL

>  <Molecule Max Phase>
4

>  <Molecular Weight>
259.35

>  <#RO5 Violations>
0

>  <AlogP>
2.58

>  <Compound Key>
1

>  <Standard Type>
IC50

>  <Standard Relation>
'>'

>  <Standard Value>
10000.0

>  <Standard Units>
nM

$$$$

  Mrv2114 03112311372D          

 43 47  0  0  1  0            999 V2000
   -0.2319   -3.7331    0.0000 O   0  0  0  0  0  0  0  0  0  0  0  0
   -0.3781   -2.9211    0.0000 C   0  0  0  0  0  0  0  0  0  0  0  0
   -1.1544   -2.6418    0.0000 C   0  0  0  0  0  0  0  0  0  0  0  0
   -1.7845   -3.1744    0.0000 C   0  0  0  0  0  0  0  0  0  0  0  0
   -2.5607   -2.8951    0.0000 C   0  0  0  0  0  0  0  0  0  0  0  0
   -2.7070   -2.0832    0.0000 S   0  0  0  0  0  0  0  0  0  0  0  0
   -3.4812   -2.3682    0.0000 O   0  0  0  0  0  0  0  0  0  0  0  0
   -3.1221   -1.3702    0.0000 O   0  0  0  0  0  0  0  0  0  0  0  0
   -2.0769   -1.5506    0.0000 C   0  0  0  0  0  0  0  0  0  0  0  0
   -1.3007   -1.8299    0.0000 C   0  0  0  0  0  0  0  0  0  0  0  0
    0.2519   -2.3885    0.0000 N   0  0  0  0  0  0  0  0  0  0  0  0
    0.1913   -1.5657    0.0000 C   0  0  0  0  0  0  0  0  0  0  0  0
    0.9551   -1.2539    0.0000 C   0  0  0  0  0  0  0  0  0  0  0  0
    1.4877   -1.8839    0.0000 C   0  0  1  0  0  0  0  0  0  0  0  0
    1.8467   -1.1411    0.0000 S   0  0  0  0  0  0  0  0  0  0  0  0
    2.5737   -0.7511    0.0000 O   0  0  0  0  0  0  0  0  0  0  0  0
    1.1038   -0.7822    0.0000 O   0  0  0  0  0  0  0  0  0  0  0  0
    2.2056   -0.3983    0.0000 C   0  0  0  0  0  0  0  0  0  0  0  0
    1.7417    0.2840    0.0000 C   0  0  0  0  0  0  0  0  0  0  0  0
    2.1007    1.0268    0.0000 C   0  0  0  0  0  0  0  0  0  0  0  0
    2.9234    1.0874    0.0000 C   0  0  0  0  0  0  0  0  0  0  0  0
    3.2824    1.8302    0.0000 F   0  0  0  0  0  0  0  0  0  0  0  0
    3.3873    0.4051    0.0000 C   0  0  0  0  0  0  0  0  0  0  0  0
    3.0284   -0.3377    0.0000 C   0  0  0  0  0  0  0  0  0  0  0  0
    2.3123   -1.9097    0.0000 C   0  0  0  0  0  0  0  0  0  0  0  0
    2.7469   -1.2084    0.0000 C   0  0  0  0  0  0  0  0  0  0  0  0
    3.5715   -1.2342    0.0000 C   0  0  0  0  0  0  0  0  0  0  0  0
    3.9615   -1.9612    0.0000 C   0  0  0  0  0  0  0  0  0  0  0  0
    4.7861   -1.9870    0.0000 C   0  0  0  0  0  0  0  0  0  0  0  0
    4.8119   -1.1624    0.0000 F   0  0  0  0  0  0  0  0  0  0  0  0
    4.7603   -2.8116    0.0000 C   0  0  0  0  0  0  0  0  0  0  0  0
    4.7346   -3.6362    0.0000 F   0  0  0  0  0  0  0  0  0  0  0  0
    3.9358   -2.7858    0.0000 F   0  0  0  0  0  0  0  0  0  0  0  0
    5.5849   -2.8373    0.0000 F   0  0  0  0  0  0  0  0  0  0  0  0
    5.6107   -2.0127    0.0000 C   0  0  0  0  0  0  0  0  0  0  0  0
    6.4353   -2.0385    0.0000 F   0  0  0  0  0  0  0  0  0  0  0  0
    6.0746   -2.6950    0.0000 F   0  0  0  0  0  0  0  0  0  0  0  0
    5.6365   -1.1881    0.0000 F   0  0  0  0  0  0  0  0  0  0  0  0
    3.5269   -2.6624    0.0000 N   0  0  0  0  0  0  0  0  0  0  0  0
    2.7023   -2.6367    0.0000 C   0  0  0  0  0  0  0  0  0  0  0  0
    2.2677   -3.3379    0.0000 C   0  0  0  0  0  0  0  0  0  0  0  0
    1.4431   -3.3122    0.0000 C   0  0  0  0  0  0  0  0  0  0  0  0
    1.0531   -2.5852    0.0000 C   0  0  1  0  0  0  0  0  0  0  0  0
  1  2  2  0  0  0  0
  2  3  1  0  0  0  0
  3  4  1  0  0  0  0
  4  5  1  0  0  0  0
  5  6  1  0  0  0  0
  6  7  2  0  0  0  0
  6  8  2  0  0  0  0
  6  9  1  0  0  0  0
  9 10  1  0  0  0  0
  3 10  1  0  0  0  0
  2 11  1  0  0  0  0
 11 12  1  0  0  0  0
 12 13  1  0  0  0  0
 14 13  1  0  0  0  0
 14 15  1  6  0  0  0
 15 16  2  0  0  0  0
 15 17  2  0  0  0  0
 15 18  1  0  0  0  0
 18 19  4  0  0  0  0
 19 20  4  0  0  0  0
 20 21  4  0  0  0  0
 21 22  1  0  0  0  0
 21 23  4  0  0  0  0
 23 24  4  0  0  0  0
 18 24  4  0  0  0  0
 14 25  1  0  0  0  0
 25 26  4  0  0  0  0
 26 27  4  0  0  0  0
 27 28  4  0  0  0  0
 28 29  1  0  0  0  0
 29 30  1  0  0  0  0
 29 31  1  0  0  0  0
 31 32  1  0  0  0  0
 31 33  1  0  0  0  0
 31 34  1  0  0  0  0
 29 35  1  0  0  0  0
 35 36  1  0  0  0  0
 35 37  1  0  0  0  0
 35 38  1  0  0  0  0
 28 39  4  0  0  0  0
 39 40  4  0  0  0  0
 25 40  4  0  0  0  0
 40 41  1  0  0  0  0
 41 42  1  0  0  0  0
 43 42  1  0  0  0  0
 43 11  1  1  0  0  0
 14 43  1  0  0  0  0
M  END
>  <CdId>
148

>  <Mol Weight>
660.59

>  <Formula>
C26H24F8N2O5S2

>  <Molecule ChEMBL ID>
CHEMBL4750603

>  <Molecule Max Phase>
None

>  <Molecular Weight>
660.61

>  <#RO5 Violations>
1

>  <AlogP>
4.55

>  <Compound Key>
5a

>  <Standard Type>
IC50

>  <Standard Relation>
'='

>  <Standard Value>
16000.0

>  <Standard Units>
nM

$$$$

  Mrv2114 03112311372D          

 14 12  0  0  0  0            999 V2000
    1.4885    1.3406    0.0000 C   0  0  0  0  0  0  0  0  0  0  0  0
    0.7740    0.9281    0.0000 C   0  0  0  0  0  0  0  0  0  0  0  0
    0.7740    0.1031    0.0000 C   0  0  0  0  0  0  0  0  0  0  0  0
    1.4885   -0.3094    0.0000 C   0  0  0  0  0  0  0  0  0  0  0  0
    1.4885   -1.1344    0.0000 C   0  0  0  0  0  0  0  0  0  0  0  0
    0.7740   -1.5469    0.0000 N   0  0  0  0  0  0  0  0  0  0  0  0
    0.0595   -1.1344    0.0000 C   0  0  0  0  0  0  0  0  0  0  0  0
    0.0595   -0.3094    0.0000 C   0  0  0  0  0  0  0  0  0  0  0  0
   -0.6549    0.1031    0.0000 C   0  0  0  0  0  0  0  0  0  0  0  0
   -1.3694    0.5156    0.0000 C   0  0  0  0  0  0  0  0  0  0  0  0
   -2.0839    0.9281    0.0000 C   0  0  0  0  0  0  0  0  0  0  0  0
   -2.7983    0.5156    0.0000 N   0  0  0  0  0  0  0  0  0  0  0  0
    3.4921    0.0000    0.0000 Cl  0  0  0  0  0  0  0  0  0  0  0  0
    0.0000   -3.1969    0.0000 Cl  0  0  0  0  0  0  0  0  0  0  0  0
  1  2  1  0  0  0  0
  2  3  1  0  0  0  0
  3  4  4  0  0  0  0
  4  5  4  0  0  0  0
  5  6  4  0  0  0  0
  6  7  4  0  0  0  0
  7  8  4  0  0  0  0
  3  8  4  0  0  0  0
  8  9  1  0  0  0  0
  9 10  3  0  0  0  0
 10 11  1  0  0  0  0
 11 12  1  0  0  0  0
M  END
>  <CdId>
149

>  <Mol Weight>
233.14

>  <Formula>
C10H14Cl2N2

>  <Molecule ChEMBL ID>
CHEMBL4175429

>  <Molecule Max Phase>
None

>  <Molecular Weight>
233.14

>  <#RO5 Violations>
0

>  <AlogP>
0.95

>  <Compound Key>
4i

>  <Standard Type>
IC50

>  <Standard Relation>
'='

>  <Standard Value>
25000.0

>  <Standard Units>
nM

$$$$

  Mrv2114 03112311372D          

 13 11  0  0  0  0            999 V2000
    0.9093    1.0500    0.0000 C   0  0  0  0  0  0  0  0  0  0  0  0
    0.9093    0.2250    0.0000 C   0  0  0  0  0  0  0  0  0  0  0  0
    1.6238   -0.1875    0.0000 N   0  0  0  0  0  0  0  0  0  0  0  0
    1.6238   -1.0125    0.0000 C   0  0  0  0  0  0  0  0  0  0  0  0
    0.9093   -1.4250    0.0000 C   0  0  0  0  0  0  0  0  0  0  0  0
    0.1949   -1.0125    0.0000 C   0  0  0  0  0  0  0  0  0  0  0  0
    0.1949   -0.1875    0.0000 C   0  0  0  0  0  0  0  0  0  0  0  0
   -0.5196    0.2250    0.0000 C   0  0  0  0  0  0  0  0  0  0  0  0
   -1.2341    0.6375    0.0000 C   0  0  0  0  0  0  0  0  0  0  0  0
   -1.9486    1.0500    0.0000 C   0  0  0  0  0  0  0  0  0  0  0  0
   -2.6630    0.6375    0.0000 N   0  0  0  0  0  0  0  0  0  0  0  0
    3.6274    0.0000    0.0000 Cl  0  0  0  0  0  0  0  0  0  0  0  0
    0.0000   -3.0750    0.0000 Cl  0  0  0  0  0  0  0  0  0  0  0  0
  1  2  1  0  0  0  0
  2  3  4  0  0  0  0
  3  4  4  0  0  0  0
  4  5  4  0  0  0  0
  5  6  4  0  0  0  0
  6  7  4  0  0  0  0
  2  7  4  0  0  0  0
  7  8  1  0  0  0  0
  8  9  3  0  0  0  0
  9 10  1  0  0  0  0
 10 11  1  0  0  0  0
M  END
>  <CdId>
150

>  <Mol Weight>
219.11

>  <Formula>
C9H12Cl2N2

>  <Molecule ChEMBL ID>
CHEMBL4162411

>  <Molecule Max Phase>
None

>  <Molecular Weight>
219.12

>  <#RO5 Violations>
0

>  <AlogP>
0.7

>  <Compound Key>
4h

>  <Standard Type>
IC50

$$$$

  Mrv2114 03112311372D          

 27 29  0  0  0  0            999 V2000
    1.4289   -1.6500    0.0000 C   0  0  0  0  0  0  0  0  0  0  0  0
    2.1434   -2.0625    0.0000 C   0  0  0  0  0  0  0  0  0  0  0  0
    2.8579   -1.6500    0.0000 C   0  0  0  0  0  0  0  0  0  0  0  0
    3.5724   -2.0625    0.0000 C   0  0  0  0  0  0  0  0  0  0  0  0
    4.2868   -1.6500    0.0000 C   0  0  0  0  0  0  0  0  0  0  0  0
    4.2868   -0.8250    0.0000 O   0  0  0  0  0  0  0  0  0  0  0  0
    5.0013   -2.0625    0.0000 N   0  0  0  0  0  0  0  0  0  0  0  0
    5.7158   -1.6500    0.0000 C   0  0  0  0  0  0  0  0  0  0  0  0
    5.7158   -0.8250    0.0000 C   0  0  0  0  0  0  0  0  0  0  0  0
    5.0013   -0.4125    0.0000 C   0  0  0  0  0  0  0  0  0  0  0  0
    5.0013    0.4125    0.0000 C   0  0  0  0  0  0  0  0  0  0  0  0
    5.7158    0.8250    0.0000 C   0  0  0  0  0  0  0  0  0  0  0  0
    5.7158    1.6500    0.0000 O   0  0  0  0  0  0  0  0  0  0  0  0
    6.4302    2.0625    0.0000 C   0  0  0  0  0  0  0  0  0  0  0  0
    6.4302    0.4125    0.0000 C   0  0  0  0  0  0  0  0  0  0  0  0
    6.4302   -0.4125    0.0000 C   0  0  0  0  0  0  0  0  0  0  0  0
    5.0013   -2.8875    0.0000 C   0  0  0  0  0  0  0  0  0  0  0  0
    5.7158   -3.3000    0.0000 C   0  0  0  0  0  0  0  0  0  0  0  0
    5.7158   -4.1250    0.0000 C   0  0  0  0  0  0  0  0  0  0  0  0
    5.0013   -4.5375    0.0000 C   0  0  0  0  0  0  0  0  0  0  0  0
    4.2868   -4.1250    0.0000 C   0  0  0  0  0  0  0  0  0  0  0  0
    3.5724   -4.5375    0.0000 C   0  0  0  0  0  0  0  0  0  0  0  0
    3.4861   -5.3580    0.0000 N   0  0  0  0  0  0  0  0  0  0  0  0
    2.6791   -5.5295    0.0000 N   0  0  0  0  0  0  0  0  0  0  0  0
    2.2666   -4.8150    0.0000 N   0  0  0  0  0  0  0  0  0  0  0  0
    2.8187   -4.2019    0.0000 N   0  0  0  0  0  0  0  0  0  0  0  0
    4.2868   -3.3000    0.0000 C   0  0  0  0  0  0  0  0  0  0  0  0
  1  2  1  0  0  0  0
  2  3  1  0  0  0  0
  3  4  1  0  0  0  0
  4  5  1  0  0  0  0
  5  6  2  0  0  0  0
  5  7  1  0  0  0  0
  7  8  1  0  0  0  0
  8  9  1  0  0  0  0
  9 10  4  0  0  0  0
 10 11  4  0  0  0  0
 11 12  4  0  0  0  0
 12 13  1  0  0  0  0
 13 14  1  0  0  0  0
 12 15  4  0  0  0  0
 15 16  4  0  0  0  0
  9 16  4  0  0  0  0
  7 17  1  0  0  0  0
 17 18  4  0  0  0  0
 18 19  4  0  0  0  0
 19 20  4  0  0  0  0
 20 21  4  0  0  0  0
 21 22  1  0  0  0  0
 22 23  4  0  0  0  0
 23 24  4  0  0  0  0
 24 25  4  0  0  0  0
 25 26  4  0  0  0  0
 22 26  4  0  0  0  0
 21 27  4  0  0  0  0
 17 27  4  0  0  0  0
M  STY  1   1 DAT
M  SAL   1  1  26
M  SDT   1 MRV_IMPLICIT_H                                        
M  SDD   1     0.0000    0.0000    DR    ALL  0       0  
M  SED   1 IMPL_H1
M  END
>  <CdId>
151

>  <Mol Weight>
365.437

>  <Formula>
C20H23N5O2

>  <Molecule ChEMBL ID>
CHEMBL2036017

>  <Molecule Max Phase>
None

>  <Molecular Weight>
365.44

>  <#RO5 Violations>
0

>  <AlogP>
3.6

>  <Compound Key>
16

>  <Standard Type>
IC50

>  <Standard Relation>
'='

>  <Standard Value>
320.0

>  <Standard Units>
nM

$$$$

  Mrv2114 03112311372D          

 24 26  0  0  0  0            999 V2000
   -3.0587   -1.4124    0.0000 C   0  0  0  0  0  0  0  0  0  0  0  0
   -2.6462   -0.6979    0.0000 C   0  0  0  0  0  0  0  0  0  0  0  0
   -3.0587    0.0165    0.0000 C   0  0  0  0  0  0  0  0  0  0  0  0
   -2.6462    0.7310    0.0000 C   0  0  0  0  0  0  0  0  0  0  0  0
   -3.0587    1.4455    0.0000 C   0  0  0  0  0  0  0  0  0  0  0  0
   -1.8212    0.7310    0.0000 C   0  0  0  0  0  0  0  0  0  0  0  0
   -1.4087    0.0165    0.0000 C   0  0  0  0  0  0  0  0  0  0  0  0
   -0.5837    0.0165    0.0000 C   0  0  0  0  0  0  0  0  0  0  0  0
   -0.1712    0.7310    0.0000 O   0  0  0  0  0  0  0  0  0  0  0  0
   -0.1712   -0.6979    0.0000 N   0  0  0  0  0  0  0  0  0  0  0  0
    0.6538   -0.6979    0.0000 C   0  0  0  0  0  0  0  0  0  0  0  0
    1.1387   -0.0305    0.0000 N   0  0  0  0  0  0  0  0  0  0  0  0
    1.9233   -0.2854    0.0000 C   0  0  0  0  0  0  0  0  0  0  0  0
    2.6378    0.1271    0.0000 C   0  0  0  0  0  0  0  0  0  0  0  0
    3.3523   -0.2854    0.0000 C   0  0  0  0  0  0  0  0  0  0  0  0
    3.3523   -1.1104    0.0000 C   0  0  0  0  0  0  0  0  0  0  0  0
    4.0668   -1.5229    0.0000 C   0  0  0  0  0  0  0  0  0  0  0  0
    4.7812   -1.9354    0.0000 F   0  0  0  0  0  0  0  0  0  0  0  0
    3.6543   -2.2374    0.0000 F   0  0  0  0  0  0  0  0  0  0  0  0
    4.4793   -0.8085    0.0000 F   0  0  0  0  0  0  0  0  0  0  0  0
    2.6378   -1.5229    0.0000 C   0  0  0  0  0  0  0  0  0  0  0  0
    1.9233   -1.1104    0.0000 C   0  0  0  0  0  0  0  0  0  0  0  0
    1.1387   -1.3654    0.0000 S   0  0  0  0  0  0  0  0  0  0  0  0
   -1.8212   -0.6979    0.0000 C   0  0  0  0  0  0  0  0  0  0  0  0
  1  2  1  0  0  0  0
  2  3  1  0  0  0  0
  3  4  1  0  0  0  0
  4  5  1  0  0  0  0
  4  6  1  0  0  0  0
  6  7  1  0  0  0  0
  7  8  1  0  0  0  0
  8  9  2  0  0  0  0
  8 10  1  0  0  0  0
 10 11  1  0  0  0  0
 11 12  4  0  0  0  0
 12 13  4  0  0  0  0
 13 14  4  0  0  0  0
 14 15  4  0  0  0  0
 15 16  4  0  0  0  0
 16 17  1  0  0  0  0
 17 18  1  0  0  0  0
 17 19  1  0  0  0  0
 17 20  1  0  0  0  0
 16 21  4  0  0  0  0
 21 22  4  0  0  0  0
 13 22  4  0  0  0  0
 22 23  4  0  0  0  0
 11 23  4  0  0  0  0
  7 24  1  0  0  0  0
  2 24  1  0  0  0  0
M  END
>  <CdId>
152

>  <Mol Weight>
356.41

>  <Formula>
C17H19F3N2OS

>  <Molecule ChEMBL ID>
CHEMBL4292052

>  <Molecule Max Phase>
None

>  <Molecular Weight>
356.41

>  <#RO5 Violations>
1

>  <AlogP>
5.33

>  <Compound Key>
9

>  <Standard Type>
IC50

>  <Standard Relation>
'>'

>  <Standard Value>
20000.0

>  <Standard Units>
nM

$$$$

  Mrv2114 03112311372D          

 27 29  0  0  0  0            999 V2000
    0.0000    0.0000    0.0000 N   0  0  0  0  0  0  0  0  0  0  0  0
    0.7145   -0.4125    0.0000 C   0  0  0  0  0  0  0  0  0  0  0  0
    1.4289   -0.0000    0.0000 O   0  0  0  0  0  0  0  0  0  0  0  0
    0.7145   -1.2375    0.0000 C   0  0  0  0  0  0  0  0  0  0  0  0
    1.4289   -1.6500    0.0000 C   0  0  0  0  0  0  0  0  0  0  0  0
    1.4289   -2.4750    0.0000 C   0  0  0  0  0  0  0  0  0  0  0  0
    0.7145   -2.8875    0.0000 C   0  0  0  0  0  0  0  0  0  0  0  0
    0.7145   -3.7125    0.0000 C   0  0  0  0  0  0  0  0  0  0  0  0
    1.4289   -4.1250    0.0000 C   0  0  0  0  0  0  0  0  0  0  0  0
    2.1434   -3.7125    0.0000 C   0  0  0  0  0  0  0  0  0  0  0  0
    2.8579   -4.1250    0.0000 C   0  0  0  0  0  0  0  0  0  0  0  0
    2.8579   -4.9500    0.0000 C   0  0  0  0  0  0  0  0  0  0  0  0
    2.1434   -5.3625    0.0000 C   0  0  0  0  0  0  0  0  0  0  0  0
    1.4289   -4.9500    0.0000 C   0  0  0  0  0  0  0  0  0  0  0  0
    0.0000   -2.4750    0.0000 C   0  0  0  0  0  0  0  0  0  0  0  0
    0.0000   -1.6500    0.0000 C   0  0  0  0  0  0  0  0  0  0  0  0
   -0.7145   -1.2375    0.0000 C   0  0  0  0  0  0  0  0  0  0  0  0
   -1.4289   -1.6500    0.0000 C   0  0  0  0  0  0  0  0  0  0  0  0
   -2.1434   -1.2375    0.0000 C   0  0  0  0  0  0  0  0  0  0  0  0
   -2.1434   -0.4125    0.0000 C   0  0  0  0  0  0  0  0  0  0  0  0
   -1.4289   -0.0000    0.0000 C   0  0  0  0  0  0  0  0  0  0  0  0
   -1.4289    0.8250    0.0000 C   0  0  0  0  0  0  0  0  0  0  0  0
   -2.1434    1.2375    0.0000 C   0  0  0  0  0  0  0  0  0  0  0  0
   -2.1434    2.0625    0.0000 C   0  0  0  0  0  0  0  0  0  0  0  0
   -2.8579    2.4750    0.0000 O   0  0  0  0  0  0  0  0  0  0  0  0
   -1.4289    2.4750    0.0000 O   0  0  0  0  0  0  0  0  0  0  0  0
   -0.7145   -0.4125    0.0000 C   0  0  0  0  0  0  0  0  0  0  0  0
  1  2  1  0  0  0  0
  2  3  2  0  0  0  0
  2  4  1  0  0  0  0
  4  5  4  0  0  0  0
  5  6  4  0  0  0  0
  6  7  4  0  0  0  0
  7  8  1  0  0  0  0
  8  9  1  0  0  0  0
  9 10  4  0  0  0  0
 10 11  4  0  0  0  0
 11 12  4  0  0  0  0
 12 13  4  0  0  0  0
 13 14  4  0  0  0  0
  9 14  4  0  0  0  0
  7 15  4  0  0  0  0
 15 16  4  0  0  0  0
  4 16  4  0  0  0  0
 16 17  1  0  0  0  0
 17 18  4  0  0  0  0
 18 19  4  0  0  0  0
 19 20  4  0  0  0  0
 20 21  4  0  0  0  0
 21 22  1  0  0  0  0
 22 23  1  0  0  0  0
 23 24  1  0  0  0  0
 24 25  2  0  0  0  0
 24 26  1  0  0  0  0
 21 27  4  0  0  0  0
 17 27  4  0  0  0  0
M  END
>  <CdId>
153

>  <Mol Weight>
359.425

>  <Formula>
C23H21NO3

>  <Molecule ChEMBL ID>
CHEMBL4457557

>  <Molecule Max Phase>
None

>  <Molecular Weight>
359.43

>  <#RO5 Violations>
0

>  <AlogP>
4.06

>  <Compound Key>
4

>  <Standard Type>
IC50

>  <Standard Relation>
'>'

>  <Standard Value>
20000.0

>  <Standard Units>
nM

$$$$

  Mrv2114 03112311372D          

 29 31  0  0  0  0            999 V2000
    0.0000   -1.6500    0.0000 C   0  0  0  0  0  0  0  0  0  0  0  0
    0.7145   -2.0625    0.0000 C   0  0  0  0  0  0  0  0  0  0  0  0
    1.4289   -1.6500    0.0000 C   0  0  0  0  0  0  0  0  0  0  0  0
    1.4289   -0.8250    0.0000 O   0  0  0  0  0  0  0  0  0  0  0  0
    2.1434   -2.0625    0.0000 N   0  0  0  0  0  0  0  0  0  0  0  0
    2.8579   -1.6500    0.0000 C   0  0  0  0  0  0  0  0  0  0  0  0
    2.8579   -0.8250    0.0000 C   0  0  0  0  0  0  0  0  0  0  0  0
    2.1434   -0.4125    0.0000 C   0  0  0  0  0  0  0  0  0  0  0  0
    2.1434    0.4125    0.0000 C   0  0  0  0  0  0  0  0  0  0  0  0
    2.8579    0.8250    0.0000 C   0  0  0  0  0  0  0  0  0  0  0  0
    2.8579    1.6500    0.0000 O   0  0  0  0  0  0  0  0  0  0  0  0
    3.5724    2.0625    0.0000 C   0  0  0  0  0  0  0  0  0  0  0  0
    4.2868    2.4750    0.0000 F   0  0  0  0  0  0  0  0  0  0  0  0
    3.1599    2.7770    0.0000 F   0  0  0  0  0  0  0  0  0  0  0  0
    3.9849    1.3480    0.0000 F   0  0  0  0  0  0  0  0  0  0  0  0
    3.5724    0.4125    0.0000 C   0  0  0  0  0  0  0  0  0  0  0  0
    3.5724   -0.4125    0.0000 C   0  0  0  0  0  0  0  0  0  0  0  0
    2.1434   -2.8875    0.0000 C   0  0  0  0  0  0  0  0  0  0  0  0
    2.8579   -3.3000    0.0000 C   0  0  0  0  0  0  0  0  0  0  0  0
    2.8579   -4.1250    0.0000 C   0  0  0  0  0  0  0  0  0  0  0  0
    3.5724   -4.5375    0.0000 F   0  0  0  0  0  0  0  0  0  0  0  0
    2.1434   -4.5375    0.0000 C   0  0  0  0  0  0  0  0  0  0  0  0
    1.4289   -4.1250    0.0000 C   0  0  0  0  0  0  0  0  0  0  0  0
    0.7145   -4.5375    0.0000 C   0  0  0  0  0  0  0  0  0  0  0  0
    0.6282   -5.3580    0.0000 N   0  0  0  0  0  0  0  0  0  0  0  0
   -0.1787   -5.5295    0.0000 N   0  0  0  0  0  0  0  0  0  0  0  0
   -0.5912   -4.8150    0.0000 N   0  0  0  0  0  0  0  0  0  0  0  0
   -0.0392   -4.2019    0.0000 N   0  0  0  0  0  0  0  0  0  0  0  0
    1.4289   -3.3000    0.0000 C   0  0  0  0  0  0  0  0  0  0  0  0
  1  2  1  0  0  0  0
  2  3  1  0  0  0  0
  3  4  2  0  0  0  0
  3  5  1  0  0  0  0
  5  6  1  0  0  0  0
  6  7  1  0  0  0  0
  7  8  4  0  0  0  0
  8  9  4  0  0  0  0
  9 10  4  0  0  0  0
 10 11  1  0  0  0  0
 11 12  1  0  0  0  0
 12 13  1  0  0  0  0
 12 14  1  0  0  0  0
 12 15  1  0  0  0  0
 10 16  4  0  0  0  0
 16 17  4  0  0  0  0
  7 17  4  0  0  0  0
  5 18  1  0  0  0  0
 18 19  4  0  0  0  0
 19 20  4  0  0  0  0
 20 21  1  0  0  0  0
 20 22  4  0  0  0  0
 22 23  4  0  0  0  0
 23 24  1  0  0  0  0
 24 25  4  0  0  0  0
 25 26  4  0  0  0  0
 26 27  4  0  0  0  0
 27 28  4  0  0  0  0
 24 28  4  0  0  0  0
 23 29  4  0  0  0  0
 18 29  4  0  0  0  0
M  STY  1   1 DAT
M  SAL   1  1  28
M  SDT   1 MRV_IMPLICIT_H                                        
M  SDD   1     0.0000    0.0000    DR    ALL  0       0  
M  SED   1 IMPL_H1
M  END
>  <CdId>
154

>  <Mol Weight>
409.345

>  <Formula>
C18H15F4N5O2

>  <Molecule ChEMBL ID>
CHEMBL2036213

>  <Molecule Max Phase>
None

>  <Molecular Weight>
409.34

>  <#RO5 Violations>
0

>  <AlogP>
3.85

>  <Compound Key>
51

>  <Standard Type>
IC50

>  <Standard Relation>
'='

>  <Standard Value>
43.0

>  <Standard Units>
nM

$$$$

  Mrv2114 03112311372D          

 16 15  0  0  0  0            999 V2000
   -1.2226    0.6401    0.0000 C   0  0  0  0  0  0  0  0  0  0  0  0
   -0.5082    1.0526    0.0000 C   0  0  0  0  0  0  0  0  0  0  0  0
   -0.5082    1.8776    0.0000 C   0  0  0  0  0  0  0  0  0  0  0  0
    0.2063    2.2901    0.0000 C   0  0  0  0  0  0  0  0  0  0  0  0
    0.9208    1.8776    0.0000 N   0  0  0  0  0  0  0  0  0  0  0  0
    0.9208    1.0526    0.0000 C   0  0  0  0  0  0  0  0  0  0  0  0
    0.2063    0.6401    0.0000 C   0  0  0  0  0  0  0  0  0  0  0  0
    0.2063   -0.1849    0.0000 C   0  0  0  0  0  0  0  0  0  0  0  0
    0.8737   -0.6698    0.0000 C   0  0  0  0  0  0  0  0  0  0  0  0
    0.6188   -1.4544    0.0000 C   0  0  0  0  0  0  0  0  0  0  0  0
   -0.2062   -1.4544    0.0000 C   0  0  0  0  0  0  0  0  0  0  0  0
   -0.6911   -2.1219    0.0000 C   0  0  0  0  0  0  0  0  0  0  0  0
   -0.3556   -2.8755    0.0000 N   0  0  0  0  0  0  0  0  0  0  0  0
   -0.4611   -0.6698    0.0000 O   0  0  0  0  0  0  0  0  0  0  0  0
    2.9243    0.0000    0.0000 Cl  0  0  0  0  0  0  0  0  0  0  0  0
    0.0000   -4.5255    0.0000 Cl  0  0  0  0  0  0  0  0  0  0  0  0
  1  2  1  0  0  0  0
  2  3  4  0  0  0  0
  3  4  4  0  0  0  0
  4  5  4  0  0  0  0
  5  6  4  0  0  0  0
  6  7  4  0  0  0  0
  2  7  4  0  0  0  0
  7  8  1  0  0  0  0
  8  9  4  0  0  0  0
  9 10  4  0  0  0  0
 10 11  4  0  0  0  0
 11 12  1  0  0  0  0
 12 13  1  0  0  0  0
 11 14  4  0  0  0  0
  8 14  4  0  0  0  0
M  END
>  <CdId>
155

>  <Mol Weight>
261.15

>  <Formula>
C11H14Cl2N2O

>  <Molecule ChEMBL ID>
CHEMBL4172417

>  <Molecule Max Phase>
None

>  <Molecular Weight>
261.15

>  <#RO5 Violations>
0

>  <AlogP>
2.11

>  <Compound Key>
5g

>  <Standard Type>
IC50

>  <Standard Relation>
'='

>  <Standard Value>
79000.0

>  <Standard Units>
nM

$$$$

  Mrv2114 03112311372D          

 20 20  0  0  0  0            999 V2000
    0.0000    0.0000    0.0000 Cl  0  0  0  0  0  0  0  0  0  0  0  0
    2.0036    0.0000    0.0000 Cl  0  0  0  0  0  0  0  0  0  0  0  0
    1.7853   -1.6500    0.0000 N   0  0  0  0  0  0  0  0  0  0  0  0
    1.0708   -2.0625    0.0000 C   0  0  0  0  0  0  0  0  0  0  0  0
    1.0708   -2.8875    0.0000 C   0  0  0  0  0  0  0  0  0  0  0  0
    1.7382   -3.3724    0.0000 C   0  0  0  0  0  0  0  0  0  0  0  0
    1.4833   -4.1570    0.0000 C   0  0  0  0  0  0  0  0  0  0  0  0
    0.6583   -4.1570    0.0000 C   0  0  0  0  0  0  0  0  0  0  0  0
    0.1734   -4.8245    0.0000 C   0  0  0  0  0  0  0  0  0  0  0  0
    0.5089   -5.5782    0.0000 C   0  0  0  0  0  0  0  0  0  0  0  0
    0.0240   -6.2456    0.0000 N   0  0  0  0  0  0  0  0  0  0  0  0
   -0.7965   -6.1594    0.0000 C   0  0  0  0  0  0  0  0  0  0  0  0
   -1.1320   -5.4057    0.0000 C   0  0  0  0  0  0  0  0  0  0  0  0
   -0.6471   -4.7382    0.0000 C   0  0  0  0  0  0  0  0  0  0  0  0
   -0.9827   -3.9846    0.0000 C   0  0  0  0  0  0  0  0  0  0  0  0
   -1.7896   -3.8130    0.0000 C   0  0  0  0  0  0  0  0  0  0  0  0
   -1.8759   -2.9926    0.0000 C   0  0  0  0  0  0  0  0  0  0  0  0
   -1.1222   -2.6570    0.0000 O   0  0  0  0  0  0  0  0  0  0  0  0
   -0.5702   -3.2701    0.0000 C   0  0  0  0  0  0  0  0  0  0  0  0
    0.4033   -3.3724    0.0000 O   0  0  0  0  0  0  0  0  0  0  0  0
  3  4  1  0  0  0  0
  4  5  1  0  0  0  0
  5  6  4  0  0  0  0
  6  7  4  0  0  0  0
  7  8  4  0  0  0  0
  8  9  1  0  0  0  0
  9 10  4  0  0  0  0
 10 11  4  0  0  0  0
 11 12  4  0  0  0  0
 12 13  4  0  0  0  0
 13 14  4  0  0  0  0
  9 14  4  0  0  0  0
 14 15  1  0  0  0  0
 15 16  4  0  0  0  0
 16 17  4  0  0  0  0
 17 18  4  0  0  0  0
 18 19  4  0  0  0  0
 15 19  4  0  0  0  0
  8 20  4  0  0  0  0
  5 20  4  0  0  0  0
M  END
>  <CdId>
156

>  <Mol Weight>
313.18

>  <Formula>
C14H14Cl2N2O2

>  <Molecule ChEMBL ID>
CHEMBL4169324

>  <Molecule Max Phase>
None

>  <Molecular Weight>
313.18

>  <#RO5 Violations>
0

>  <AlogP>
3.06

>  <Compound Key>
5n

>  <Standard Type>
IC50

>  <Standard Relation>
'>'

>  <Standard Value>
25000.0

>  <Standard Units>
nM

$$$$

  Mrv2114 03112311372D          

 20 20  0  0  0  0            999 V2000
    0.0000    0.0000    0.0000 Cl  0  0  0  0  0  0  0  0  0  0  0  0
    2.0036    0.0000    0.0000 Cl  0  0  0  0  0  0  0  0  0  0  0  0
    1.7853   -1.6500    0.0000 N   0  0  0  0  0  0  0  0  0  0  0  0
    1.0708   -2.0625    0.0000 C   0  0  0  0  0  0  0  0  0  0  0  0
    1.0708   -2.8875    0.0000 C   0  0  0  0  0  0  0  0  0  0  0  0
    1.7382   -3.3724    0.0000 C   0  0  0  0  0  0  0  0  0  0  0  0
    1.4833   -4.1570    0.0000 C   0  0  0  0  0  0  0  0  0  0  0  0
    0.6583   -4.1570    0.0000 C   0  0  0  0  0  0  0  0  0  0  0  0
    0.1734   -4.8245    0.0000 C   0  0  0  0  0  0  0  0  0  0  0  0
    0.5089   -5.5782    0.0000 C   0  0  0  0  0  0  0  0  0  0  0  0
    0.0240   -6.2456    0.0000 N   0  0  0  0  0  0  0  0  0  0  0  0
   -0.7965   -6.1594    0.0000 C   0  0  0  0  0  0  0  0  0  0  0  0
   -1.1320   -5.4057    0.0000 C   0  0  0  0  0  0  0  0  0  0  0  0
   -0.6471   -4.7382    0.0000 C   0  0  0  0  0  0  0  0  0  0  0  0
   -0.9827   -3.9846    0.0000 C   0  0  0  0  0  0  0  0  0  0  0  0
   -1.7896   -3.8130    0.0000 C   0  0  0  0  0  0  0  0  0  0  0  0
   -1.8759   -2.9926    0.0000 C   0  0  0  0  0  0  0  0  0  0  0  0
   -1.1222   -2.6570    0.0000 O   0  0  0  0  0  0  0  0  0  0  0  0
   -0.5702   -3.2701    0.0000 C   0  0  0  0  0  0  0  0  0  0  0  0
    0.4033   -3.3724    0.0000 S   0  0  0  0  0  0  0  0  0  0  0  0
  3  4  1  0  0  0  0
  4  5  1  0  0  0  0
  5  6  4  0  0  0  0
  6  7  4  0  0  0  0
  7  8  4  0  0  0  0
  8  9  1  0  0  0  0
  9 10  4  0  0  0  0
 10 11  4  0  0  0  0
 11 12  4  0  0  0  0
 12 13  4  0  0  0  0
 13 14  4  0  0  0  0
  9 14  4  0  0  0  0
 14 15  1  0  0  0  0
 15 16  4  0  0  0  0
 16 17  4  0  0  0  0
 17 18  4  0  0  0  0
 18 19  4  0  0  0  0
 15 19  4  0  0  0  0
  8 20  4  0  0  0  0
  5 20  4  0  0  0  0
M  END
>  <CdId>
157

>  <Mol Weight>
329.24

>  <Formula>
C14H14Cl2N2OS

>  <Molecule ChEMBL ID>
CHEMBL4160749

>  <Molecule Max Phase>
None

>  <Molecular Weight>
329.25

>  <#RO5 Violations>
0

>  <AlogP>
3.53

>  <Compound Key>
6n

>  <Standard Type>
IC50

>  <Standard Relation>
'='

>  <Standard Value>
4800.0

>  <Standard Units>
nM

$$$$

  Mrv2114 03112311372D          

 44 48  0  0  1  0            999 V2000
   -1.3007   -1.8299    0.0000 O   0  0  0  0  0  0  0  0  0  0  0  0
   -1.1544   -2.6418    0.0000 C   0  0  0  0  0  0  0  0  0  0  0  0
   -0.3781   -2.9211    0.0000 N   0  0  0  0  0  0  0  0  0  0  0  0
    0.2519   -2.3885    0.0000 C   0  0  2  0  0  0  0  0  0  0  0  0
    0.1913   -1.5657    0.0000 C   0  0  0  0  0  0  0  0  0  0  0  0
    0.9551   -1.2539    0.0000 C   0  0  0  0  0  0  0  0  0  0  0  0
    1.4877   -1.8839    0.0000 C   0  0  1  0  0  0  0  0  0  0  0  0
    1.8467   -1.1411    0.0000 S   0  0  0  0  0  0  0  0  0  0  0  0
    2.5737   -0.7511    0.0000 O   0  0  0  0  0  0  0  0  0  0  0  0
    1.1038   -0.7822    0.0000 O   0  0  0  0  0  0  0  0  0  0  0  0
    2.2056   -0.3983    0.0000 C   0  0  0  0  0  0  0  0  0  0  0  0
    1.7417    0.2840    0.0000 C   0  0  0  0  0  0  0  0  0  0  0  0
    2.1007    1.0268    0.0000 C   0  0  0  0  0  0  0  0  0  0  0  0
    2.9234    1.0874    0.0000 C   0  0  0  0  0  0  0  0  0  0  0  0
    3.2824    1.8302    0.0000 F   0  0  0  0  0  0  0  0  0  0  0  0
    3.3873    0.4051    0.0000 C   0  0  0  0  0  0  0  0  0  0  0  0
    3.0284   -0.3377    0.0000 C   0  0  0  0  0  0  0  0  0  0  0  0
    2.3123   -1.9097    0.0000 C   0  0  0  0  0  0  0  0  0  0  0  0
    2.7469   -1.2084    0.0000 C   0  0  0  0  0  0  0  0  0  0  0  0
    3.5715   -1.2342    0.0000 C   0  0  0  0  0  0  0  0  0  0  0  0
    3.9615   -1.9612    0.0000 C   0  0  0  0  0  0  0  0  0  0  0  0
    4.7861   -1.9870    0.0000 C   0  0  0  0  0  0  0  0  0  0  0  0
    4.8119   -1.1624    0.0000 F   0  0  0  0  0  0  0  0  0  0  0  0
    4.7603   -2.8116    0.0000 C   0  0  0  0  0  0  0  0  0  0  0  0
    4.7346   -3.6362    0.0000 F   0  0  0  0  0  0  0  0  0  0  0  0
    5.5849   -2.8373    0.0000 F   0  0  0  0  0  0  0  0  0  0  0  0
    3.9358   -2.7858    0.0000 F   0  0  0  0  0  0  0  0  0  0  0  0
    5.6107   -2.0127    0.0000 C   0  0  0  0  0  0  0  0  0  0  0  0
    6.4353   -2.0385    0.0000 F   0  0  0  0  0  0  0  0  0  0  0  0
    6.0746   -2.6950    0.0000 F   0  0  0  0  0  0  0  0  0  0  0  0
    5.6365   -1.1881    0.0000 F   0  0  0  0  0  0  0  0  0  0  0  0
    3.5269   -2.6624    0.0000 C   0  0  0  0  0  0  0  0  0  0  0  0
    2.7023   -2.6367    0.0000 C   0  0  0  0  0  0  0  0  0  0  0  0
    2.2677   -3.3379    0.0000 C   0  0  0  0  0  0  0  0  0  0  0  0
    1.4431   -3.3122    0.0000 C   0  0  0  0  0  0  0  0  0  0  0  0
    1.0531   -2.5852    0.0000 C   0  0  1  0  0  0  0  0  0  0  0  0
   -1.7845   -3.1744    0.0000 C   0  0  0  0  0  0  0  0  0  0  0  0
   -1.6382   -3.9864    0.0000 C   0  0  0  0  0  0  0  0  0  0  0  0
   -2.2682   -4.5190    0.0000 C   0  0  0  0  0  0  0  0  0  0  0  0
   -3.0445   -4.2397    0.0000 S   0  0  0  0  0  0  0  0  0  0  0  0
   -3.1848   -5.0527    0.0000 O   0  0  0  0  0  0  0  0  0  0  0  0
   -3.8695   -4.2427    0.0000 O   0  0  0  0  0  0  0  0  0  0  0  0
   -3.1908   -3.4277    0.0000 C   0  0  0  0  0  0  0  0  0  0  0  0
   -2.5607   -2.8951    0.0000 C   0  0  0  0  0  0  0  0  0  0  0  0
  1  2  2  0  0  0  0
  2  3  1  0  0  0  0
  4  3  1  6  0  0  0
  4  5  1  0  0  0  0
  5  6  1  0  0  0  0
  7  6  1  0  0  0  0
  7  8  1  6  0  0  0
  8  9  2  0  0  0  0
  8 10  2  0  0  0  0
  8 11  1  0  0  0  0
 11 12  4  0  0  0  0
 12 13  4  0  0  0  0
 13 14  4  0  0  0  0
 14 15  1  0  0  0  0
 14 16  4  0  0  0  0
 16 17  4  0  0  0  0
 11 17  4  0  0  0  0
  7 18  1  0  0  0  0
 18 19  4  0  0  0  0
 19 20  4  0  0  0  0
 20 21  4  0  0  0  0
 21 22  1  0  0  0  0
 22 23  1  0  0  0  0
 22 24  1  0  0  0  0
 24 25  1  0  0  0  0
 24 26  1  0  0  0  0
 24 27  1  0  0  0  0
 22 28  1  0  0  0  0
 28 29  1  0  0  0  0
 28 30  1  0  0  0  0
 28 31  1  0  0  0  0
 21 32  4  0  0  0  0
 32 33  4  0  0  0  0
 18 33  4  0  0  0  0
 33 34  1  0  0  0  0
 34 35  1  0  0  0  0
 36 35  1  1  0  0  0
 36  4  1  0  0  0  0
 36  7  1  0  0  0  0
  2 37  1  0  0  0  0
 37 38  1  0  0  0  0
 38 39  1  0  0  0  0
 39 40  1  0  0  0  0
 40 41  2  0  0  0  0
 40 42  2  0  0  0  0
 40 43  1  0  0  0  0
 43 44  1  0  0  0  0
 37 44  1  0  0  0  0
M  END
>  <CdId>
158

>  <Mol Weight>
673.63

>  <Formula>
C28H27F8NO5S2

>  <Molecule ChEMBL ID>
CHEMBL4796103

>  <Molecule Max Phase>
None

>  <Molecular Weight>
673.64

>  <#RO5 Violations>
2

>  <AlogP>
5.45

>  <Compound Key>
3c

>  <Standard Type>
IC50

>  <Standard Relation>
'='

>  <Standard Value>
6500.0

>  <Standard Units>
nM

$$$$

  Mrv2114 03112311372D          

 22 24  0  0  0  0            999 V2000
   -1.4289   -0.8250    0.0000 N   0  0  0  0  0  0  0  0  0  0  0  0
   -1.4289   -1.6500    0.0000 C   0  0  0  0  0  0  0  0  0  0  0  0
   -1.4289   -2.4750    0.0000 C   0  0  0  0  0  0  0  0  0  0  0  0
   -0.7145   -2.8875    0.0000 C   0  0  0  0  0  0  0  0  0  0  0  0
   -0.7145   -3.7125    0.0000 C   0  0  0  0  0  0  0  0  0  0  0  0
    0.0000   -4.1250    0.0000 Cl  0  0  0  0  0  0  0  0  0  0  0  0
   -1.4289   -4.1250    0.0000 C   0  0  0  0  0  0  0  0  0  0  0  0
   -2.1434   -3.7125    0.0000 C   0  0  0  0  0  0  0  0  0  0  0  0
   -2.8579   -4.1250    0.0000 C   0  0  0  0  0  0  0  0  0  0  0  0
   -2.8579   -4.9500    0.0000 C   0  0  0  0  0  0  0  0  0  0  0  0
   -3.5724   -5.3625    0.0000 C   0  0  0  0  0  0  0  0  0  0  0  0
   -3.5724   -6.1875    0.0000 C   0  0  0  0  0  0  0  0  0  0  0  0
   -2.8579   -6.6000    0.0000 C   0  0  0  0  0  0  0  0  0  0  0  0
   -2.8579   -7.4250    0.0000 C   0  0  0  0  0  0  0  0  0  0  0  0
   -3.5724   -7.8375    0.0000 C   0  0  0  0  0  0  0  0  0  0  0  0
   -3.5724   -8.6625    0.0000 F   0  0  0  0  0  0  0  0  0  0  0  0
   -4.2868   -7.4250    0.0000 C   0  0  0  0  0  0  0  0  0  0  0  0
   -4.2868   -6.6000    0.0000 N   0  0  0  0  0  0  0  0  0  0  0  0
   -4.2868   -4.9500    0.0000 N   0  0  0  0  0  0  0  0  0  0  0  0
   -4.2868   -4.1250    0.0000 C   0  0  0  0  0  0  0  0  0  0  0  0
   -3.5724   -3.7125    0.0000 N   0  0  0  0  0  0  0  0  0  0  0  0
   -2.1434   -2.8875    0.0000 C   0  0  0  0  0  0  0  0  0  0  0  0
  1  2  3  0  0  0  0
  2  3  1  0  0  0  0
  3  4  4  0  0  0  0
  4  5  4  0  0  0  0
  5  6  1  0  0  0  0
  5  7  4  0  0  0  0
  7  8  4  0  0  0  0
  8  9  1  0  0  0  0
  9 10  4  0  0  0  0
 10 11  4  0  0  0  0
 11 12  1  0  0  0  0
 12 13  4  0  0  0  0
 13 14  4  0  0  0  0
 14 15  4  0  0  0  0
 15 16  1  0  0  0  0
 15 17  4  0  0  0  0
 17 18  4  0  0  0  0
 12 18  4  0  0  0  0
 11 19  4  0  0  0  0
 19 20  4  0  0  0  0
 20 21  4  0  0  0  0
  9 21  4  0  0  0  0
  8 22  4  0  0  0  0
  3 22  4  0  0  0  0
M  END
>  <CdId>
159

>  <Mol Weight>
310.72

>  <Formula>
C16H8ClFN4

>  <Molecule ChEMBL ID>
CHEMBL3603923

>  <Molecule Max Phase>
None

>  <Molecular Weight>
310.72

>  <#RO5 Violations>
0

>  <AlogP>
3.87

>  <Compound Key>
25, HTL14242

>  <Standard Type>
IC50

>  <Standard Relation>
'>'

>  <Standard Value>
15848.93

>  <Standard Units>
nM

$$$$

  Mrv2114 03112311372D          

 31 34  0  0  0  0            999 V2000
    5.0013    2.8875    0.0000 C   0  0  0  0  0  0  0  0  0  0  0  0
    4.2868    2.4750    0.0000 C   0  0  0  0  0  0  0  0  0  0  0  0
    4.2868    1.6500    0.0000 C   0  0  0  0  0  0  0  0  0  0  0  0
    3.5724    1.2375    0.0000 C   0  0  0  0  0  0  0  0  0  0  0  0
    3.5724    0.4125    0.0000 C   0  0  0  0  0  0  0  0  0  0  0  0
    2.8579   -0.0000    0.0000 C   0  0  0  0  0  0  0  0  0  0  0  0
    2.1434    0.4125    0.0000 C   0  0  0  0  0  0  0  0  0  0  0  0
    1.4289   -0.0000    0.0000 S   0  0  0  0  0  0  0  0  0  0  0  0
    1.0164    0.7145    0.0000 O   0  0  0  0  0  0  0  0  0  0  0  0
    1.8414   -0.7145    0.0000 O   0  0  0  0  0  0  0  0  0  0  0  0
    0.7145   -0.4125    0.0000 N   0  0  0  0  0  0  0  0  0  0  0  0
    0.0000   -0.0000    0.0000 C   0  0  0  0  0  0  0  0  0  0  0  0
    0.0000    0.8250    0.0000 C   0  0  0  0  0  0  0  0  0  0  0  0
   -0.7145    1.2375    0.0000 C   0  0  0  0  0  0  0  0  0  0  0  0
   -0.7145    2.0625    0.0000 C   0  0  0  0  0  0  0  0  0  0  0  0
    0.0000    2.4750    0.0000 C   0  0  0  0  0  0  0  0  0  0  0  0
    0.7145    2.0625    0.0000 C   0  0  0  0  0  0  0  0  0  0  0  0
    0.7145    1.2375    0.0000 C   0  0  0  0  0  0  0  0  0  0  0  0
    0.7145   -1.2375    0.0000 C   0  0  0  0  0  0  0  0  0  0  0  0
    1.3819   -1.7224    0.0000 C   0  0  0  0  0  0  0  0  0  0  0  0
    1.1270   -2.5070    0.0000 C   0  0  0  0  0  0  0  0  0  0  0  0
    0.3020   -2.5070    0.0000 N   0  0  0  0  0  0  0  0  0  0  0  0
    0.0470   -1.7224    0.0000 N   0  0  0  0  0  0  0  0  0  0  0  0
   -0.7376   -1.4675    0.0000 C   0  0  0  0  0  0  0  0  0  0  0  0
   -1.3507   -2.0195    0.0000 C   0  0  0  0  0  0  0  0  0  0  0  0
   -2.1353   -1.7646    0.0000 C   0  0  0  0  0  0  0  0  0  0  0  0
   -2.3068   -0.9576    0.0000 C   0  0  0  0  0  0  0  0  0  0  0  0
   -1.6937   -0.4056    0.0000 C   0  0  0  0  0  0  0  0  0  0  0  0
   -0.9091   -0.6605    0.0000 C   0  0  0  0  0  0  0  0  0  0  0  0
    2.1434    1.2375    0.0000 C   0  0  0  0  0  0  0  0  0  0  0  0
    2.8579    1.6500    0.0000 C   0  0  0  0  0  0  0  0  0  0  0  0
  1  2  2  0  0  0  0
  2  3  1  0  0  0  0
  3  4  1  0  0  0  0
  4  5  4  0  0  0  0
  5  6  4  0  0  0  0
  6  7  4  0  0  0  0
  7  8  1  0  0  0  0
  8  9  2  0  0  0  0
  8 10  2  0  0  0  0
  8 11  1  0  0  0  0
 11 12  1  0  0  0  0
 12 13  1  0  0  0  0
 13 14  4  0  0  0  0
 14 15  4  0  0  0  0
 15 16  4  0  0  0  0
 16 17  4  0  0  0  0
 17 18  4  0  0  0  0
 13 18  4  0  0  0  0
 11 19  1  0  0  0  0
 19 20  4  0  0  0  0
 20 21  4  0  0  0  0
 21 22  4  0  0  0  0
 22 23  4  0  0  0  0
 19 23  4  0  0  0  0
 23 24  1  0  0  0  0
 24 25  4  0  0  0  0
 25 26  4  0  0  0  0
 26 27  4  0  0  0  0
 27 28  4  0  0  0  0
 28 29  4  0  0  0  0
 24 29  4  0  0  0  0
  7 30  4  0  0  0  0
 30 31  4  0  0  0  0
  4 31  4  0  0  0  0
M  END
>  <CdId>
160

>  <Mol Weight>
429.54

>  <Formula>
C25H23N3O2S

>  <Molecule ChEMBL ID>
CHEMBL332690

>  <Molecule Max Phase>
None

>  <Molecular Weight>
429.55

>  <#RO5 Violations>
0

>  <AlogP>
5

>  <Compound Key>
22

>  <Standard Type>
IC50

>  <Standard Relation>
'='

>  <Standard Value>
30000.0

>  <Standard Units>
nM

$$$$

  Mrv2114 03112311372D          

 25 27  0  0  0  0            999 V2000
   -0.9851   -3.2777    0.0000 C   0  0  0  0  0  0  0  0  0  0  0  0
   -0.1781   -3.1062    0.0000 N   0  0  0  0  0  0  0  0  0  0  0  0
    0.3739   -3.7192    0.0000 C   0  0  0  0  0  0  0  0  0  0  0  0
    0.0768   -2.3215    0.0000 C   0  0  0  0  0  0  0  0  0  0  0  0
   -0.4752   -1.7084    0.0000 O   0  0  0  0  0  0  0  0  0  0  0  0
    0.8838   -2.1500    0.0000 C   0  0  0  0  0  0  0  0  0  0  0  0
    1.1387   -1.3654    0.0000 N   0  0  0  0  0  0  0  0  0  0  0  0
    0.6538   -0.6979    0.0000 C   0  0  0  0  0  0  0  0  0  0  0  0
    1.1387   -0.0305    0.0000 C   0  0  0  0  0  0  0  0  0  0  0  0
    1.9233   -0.2854    0.0000 C   0  0  0  0  0  0  0  0  0  0  0  0
    2.6378    0.1271    0.0000 N   0  0  0  0  0  0  0  0  0  0  0  0
    3.3523   -0.2854    0.0000 C   0  0  0  0  0  0  0  0  0  0  0  0
    3.3523   -1.1104    0.0000 C   0  0  0  0  0  0  0  0  0  0  0  0
    4.0668   -1.5229    0.0000 C   0  0  0  0  0  0  0  0  0  0  0  0
    4.7812   -1.1104    0.0000 C   0  0  0  0  0  0  0  0  0  0  0  0
    5.4957   -1.5229    0.0000 C   0  0  0  0  0  0  0  0  0  0  0  0
    5.4957   -2.3479    0.0000 C   0  0  0  0  0  0  0  0  0  0  0  0
    4.7812   -2.7604    0.0000 C   0  0  0  0  0  0  0  0  0  0  0  0
    4.7812   -3.5854    0.0000 C   0  0  0  0  0  0  0  0  0  0  0  0
    4.7812   -4.4104    0.0000 F   0  0  0  0  0  0  0  0  0  0  0  0
    3.9562   -3.5854    0.0000 F   0  0  0  0  0  0  0  0  0  0  0  0
    5.6062   -3.5854    0.0000 F   0  0  0  0  0  0  0  0  0  0  0  0
    4.0668   -2.3479    0.0000 C   0  0  0  0  0  0  0  0  0  0  0  0
    2.6378   -1.5229    0.0000 C   0  0  0  0  0  0  0  0  0  0  0  0
    1.9233   -1.1104    0.0000 C   0  0  0  0  0  0  0  0  0  0  0  0
  1  2  1  0  0  0  0
  2  3  1  0  0  0  0
  2  4  1  0  0  0  0
  4  5  2  0  0  0  0
  4  6  1  0  0  0  0
  6  7  1  0  0  0  0
  7  8  4  0  0  0  0
  8  9  4  0  0  0  0
  9 10  4  0  0  0  0
 10 11  4  0  0  0  0
 11 12  4  0  0  0  0
 12 13  4  0  0  0  0
 13 14  1  0  0  0  0
 14 15  4  0  0  0  0
 15 16  4  0  0  0  0
 16 17  4  0  0  0  0
 17 18  4  0  0  0  0
 18 19  1  0  0  0  0
 19 20  1  0  0  0  0
 19 21  1  0  0  0  0
 19 22  1  0  0  0  0
 18 23  4  0  0  0  0
 14 23  4  0  0  0  0
 13 24  4  0  0  0  0
 24 25  4  0  0  0  0
 10 25  4  0  0  0  0
  7 25  4  0  0  0  0
M  END
>  <CdId>
161

>  <Mol Weight>
347.341

>  <Formula>
C18H16F3N3O

>  <Molecule ChEMBL ID>
CHEMBL4571666

>  <Molecule Max Phase>
None

>  <Molecular Weight>
347.34

>  <#RO5 Violations>
0

>  <AlogP>
3.81

>  <Compound Key>
18

>  <Standard Type>
IC50

>  <Standard Relation>
'>'

>  <Standard Value>
10000.0

>  <Standard Units>
nM

$$$$

  Mrv2114 03112311372D          

 25 28  0  0  0  0            999 V2000
    4.0668    3.1729    0.0000 O   0  0  0  0  0  0  0  0  0  0  0  0
    4.0668    2.3479    0.0000 C   0  0  0  0  0  0  0  0  0  0  0  0
    4.7812    1.9354    0.0000 C   0  0  0  0  0  0  0  0  0  0  0  0
    5.4957    2.3479    0.0000 C   0  0  0  0  0  0  0  0  0  0  0  0
    6.2102    1.9354    0.0000 C   0  0  0  0  0  0  0  0  0  0  0  0
    6.2102    1.1104    0.0000 C   0  0  0  0  0  0  0  0  0  0  0  0
    5.4957    0.6979    0.0000 C   0  0  0  0  0  0  0  0  0  0  0  0
    5.4957   -0.1271    0.0000 F   0  0  0  0  0  0  0  0  0  0  0  0
    4.7812    1.1104    0.0000 C   0  0  0  0  0  0  0  0  0  0  0  0
    3.3523    1.9354    0.0000 N   0  0  0  0  0  0  0  0  0  0  0  0
    3.3523    1.1104    0.0000 C   0  0  0  0  0  0  0  0  0  0  0  0
    2.6378    0.6979    0.0000 C   0  0  0  0  0  0  0  0  0  0  0  0
    1.9233    1.1104    0.0000 C   0  0  0  0  0  0  0  0  0  0  0  0
    1.1387    0.8555    0.0000 O   0  0  0  0  0  0  0  0  0  0  0  0
    0.6538    1.5229    0.0000 C   0  0  0  0  0  0  0  0  0  0  0  0
   -0.1712    1.5229    0.0000 C   0  0  0  0  0  0  0  0  0  0  0  0
   -0.5837    0.8085    0.0000 C   0  0  0  0  0  0  0  0  0  0  0  0
   -1.4087    0.8085    0.0000 C   0  0  0  0  0  0  0  0  0  0  0  0
   -1.8212    1.5229    0.0000 C   0  0  0  0  0  0  0  0  0  0  0  0
   -2.6462    1.5229    0.0000 F   0  0  0  0  0  0  0  0  0  0  0  0
   -1.4087    2.2374    0.0000 C   0  0  0  0  0  0  0  0  0  0  0  0
   -0.5837    2.2374    0.0000 N   0  0  0  0  0  0  0  0  0  0  0  0
    1.1387    2.1904    0.0000 N   0  0  0  0  0  0  0  0  0  0  0  0
    1.9233    1.9354    0.0000 C   0  0  0  0  0  0  0  0  0  0  0  0
    2.6378    2.3479    0.0000 C   0  0  0  0  0  0  0  0  0  0  0  0
  1  2  2  0  0  0  0
  2  3  1  0  0  0  0
  3  4  4  0  0  0  0
  4  5  4  0  0  0  0
  5  6  4  0  0  0  0
  6  7  4  0  0  0  0
  7  8  1  0  0  0  0
  7  9  4  0  0  0  0
  3  9  4  0  0  0  0
  2 10  1  0  0  0  0
 10 11  1  0  0  0  0
 11 12  1  0  0  0  0
 12 13  1  0  0  0  0
 13 14  4  0  0  0  0
 14 15  4  0  0  0  0
 15 16  1  0  0  0  0
 16 17  4  0  0  0  0
 17 18  4  0  0  0  0
 18 19  4  0  0  0  0
 19 20  1  0  0  0  0
 19 21  4  0  0  0  0
 21 22  4  0  0  0  0
 16 22  4  0  0  0  0
 15 23  4  0  0  0  0
 23 24  4  0  0  0  0
 13 24  4  0  0  0  0
 24 25  1  0  0  0  0
 10 25  1  0  0  0  0
M  END
>  <CdId>
162

>  <Mol Weight>
341.318

>  <Formula>
C18H13F2N3O2

>  <Molecule ChEMBL ID>
CHEMBL4102181

>  <Molecule Max Phase>
None

>  <Molecular Weight>
341.32

>  <#RO5 Violations>
0

>  <AlogP>
3.21

>  <Compound Key>
19; DSR-98776

>  <Standard Type>
IC50

>  <Standard Relation>
'>'

>  <Standard Value>
50000.0

>  <Standard Units>
nM

$$$$

  Mrv2114 03112311372D          

 26 29  0  0  0  0            999 V2000
    4.0668    3.1729    0.0000 O   0  0  0  0  0  0  0  0  0  0  0  0
    4.0668    2.3479    0.0000 C   0  0  0  0  0  0  0  0  0  0  0  0
    4.7812    1.9354    0.0000 C   0  0  0  0  0  0  0  0  0  0  0  0
    5.4957    2.3479    0.0000 C   0  0  0  0  0  0  0  0  0  0  0  0
    6.2102    1.9354    0.0000 C   0  0  0  0  0  0  0  0  0  0  0  0
    6.9246    2.3479    0.0000 F   0  0  0  0  0  0  0  0  0  0  0  0
    6.2102    1.1104    0.0000 C   0  0  0  0  0  0  0  0  0  0  0  0
    5.4957    0.6979    0.0000 C   0  0  0  0  0  0  0  0  0  0  0  0
    5.4957   -0.1271    0.0000 Cl  0  0  0  0  0  0  0  0  0  0  0  0
    4.7812    1.1104    0.0000 C   0  0  0  0  0  0  0  0  0  0  0  0
    3.3523    1.9354    0.0000 N   0  0  0  0  0  0  0  0  0  0  0  0
    3.3523    1.1104    0.0000 C   0  0  0  0  0  0  0  0  0  0  0  0
    2.6378    0.6979    0.0000 C   0  0  0  0  0  0  0  0  0  0  0  0
    1.9233    1.1104    0.0000 C   0  0  0  0  0  0  0  0  0  0  0  0
    1.1387    0.8555    0.0000 O   0  0  0  0  0  0  0  0  0  0  0  0
    0.6538    1.5229    0.0000 C   0  0  0  0  0  0  0  0  0  0  0  0
   -0.1712    1.5229    0.0000 C   0  0  0  0  0  0  0  0  0  0  0  0
   -0.5837    0.8085    0.0000 C   0  0  0  0  0  0  0  0  0  0  0  0
   -1.4087    0.8085    0.0000 C   0  0  0  0  0  0  0  0  0  0  0  0
   -1.8212    1.5229    0.0000 C   0  0  0  0  0  0  0  0  0  0  0  0
   -2.6462    1.5229    0.0000 F   0  0  0  0  0  0  0  0  0  0  0  0
   -1.4087    2.2374    0.0000 C   0  0  0  0  0  0  0  0  0  0  0  0
   -0.5837    2.2374    0.0000 N   0  0  0  0  0  0  0  0  0  0  0  0
    1.1387    2.1904    0.0000 N   0  0  0  0  0  0  0  0  0  0  0  0
    1.9233    1.9354    0.0000 C   0  0  0  0  0  0  0  0  0  0  0  0
    2.6378    2.3479    0.0000 C   0  0  0  0  0  0  0  0  0  0  0  0
  1  2  2  0  0  0  0
  2  3  1  0  0  0  0
  3  4  4  0  0  0  0
  4  5  4  0  0  0  0
  5  6  1  0  0  0  0
  5  7  4  0  0  0  0
  7  8  4  0  0  0  0
  8  9  1  0  0  0  0
  8 10  4  0  0  0  0
  3 10  4  0  0  0  0
  2 11  1  0  0  0  0
 11 12  1  0  0  0  0
 12 13  1  0  0  0  0
 13 14  1  0  0  0  0
 14 15  4  0  0  0  0
 15 16  4  0  0  0  0
 16 17  1  0  0  0  0
 17 18  4  0  0  0  0
 18 19  4  0  0  0  0
 19 20  4  0  0  0  0
 20 21  1  0  0  0  0
 20 22  4  0  0  0  0
 22 23  4  0  0  0  0
 17 23  4  0  0  0  0
 16 24  4  0  0  0  0
 24 25  4  0  0  0  0
 14 25  4  0  0  0  0
 25 26  1  0  0  0  0
 11 26  1  0  0  0  0
M  END
>  <CdId>
163

>  <Mol Weight>
375.76

>  <Formula>
C18H12ClF2N3O2

>  <Molecule ChEMBL ID>
CHEMBL4087545

>  <Molecule Max Phase>
None

>  <Molecular Weight>
375.76

>  <#RO5 Violations>
0

>  <AlogP>
3.87

>  <Compound Key>
24

>  <Standard Type>
IC50

>  <Standard Relation>
'>'

>  <Standard Value>
50000.0

>  <Standard Units>
nM

$$$$

  Mrv2114 03112311372D          

 26 29  0  0  0  0            999 V2000
    4.0668    3.1729    0.0000 O   0  0  0  0  0  0  0  0  0  0  0  0
    4.0668    2.3479    0.0000 C   0  0  0  0  0  0  0  0  0  0  0  0
    4.7812    1.9354    0.0000 C   0  0  0  0  0  0  0  0  0  0  0  0
    5.4957    2.3479    0.0000 C   0  0  0  0  0  0  0  0  0  0  0  0
    6.2102    1.9354    0.0000 C   0  0  0  0  0  0  0  0  0  0  0  0
    6.9246    2.3479    0.0000 F   0  0  0  0  0  0  0  0  0  0  0  0
    6.2102    1.1104    0.0000 C   0  0  0  0  0  0  0  0  0  0  0  0
    5.4957    0.6979    0.0000 C   0  0  0  0  0  0  0  0  0  0  0  0
    5.4957   -0.1271    0.0000 Cl  0  0  0  0  0  0  0  0  0  0  0  0
    4.7812    1.1104    0.0000 C   0  0  0  0  0  0  0  0  0  0  0  0
    3.3523    1.9354    0.0000 N   0  0  0  0  0  0  0  0  0  0  0  0
    3.3523    1.1104    0.0000 C   0  0  0  0  0  0  0  0  0  0  0  0
    2.6378    0.6979    0.0000 C   0  0  0  0  0  0  0  0  0  0  0  0
    1.9233    1.1104    0.0000 N   0  0  0  0  0  0  0  0  0  0  0  0
    1.1387    0.8555    0.0000 N   0  0  0  0  0  0  0  0  0  0  0  0
    0.6538    1.5229    0.0000 C   0  0  0  0  0  0  0  0  0  0  0  0
   -0.1712    1.5229    0.0000 C   0  0  0  0  0  0  0  0  0  0  0  0
   -0.5837    0.8085    0.0000 C   0  0  0  0  0  0  0  0  0  0  0  0
   -1.4087    0.8085    0.0000 C   0  0  0  0  0  0  0  0  0  0  0  0
   -1.8212    1.5229    0.0000 C   0  0  0  0  0  0  0  0  0  0  0  0
   -2.6462    1.5229    0.0000 F   0  0  0  0  0  0  0  0  0  0  0  0
   -1.4087    2.2374    0.0000 C   0  0  0  0  0  0  0  0  0  0  0  0
   -0.5837    2.2374    0.0000 N   0  0  0  0  0  0  0  0  0  0  0  0
    1.1387    2.1904    0.0000 C   0  0  0  0  0  0  0  0  0  0  0  0
    1.9233    1.9354    0.0000 C   0  0  0  0  0  0  0  0  0  0  0  0
    2.6378    2.3479    0.0000 C   0  0  0  0  0  0  0  0  0  0  0  0
  1  2  2  0  0  0  0
  2  3  1  0  0  0  0
  3  4  4  0  0  0  0
  4  5  4  0  0  0  0
  5  6  1  0  0  0  0
  5  7  4  0  0  0  0
  7  8  4  0  0  0  0
  8  9  1  0  0  0  0
  8 10  4  0  0  0  0
  3 10  4  0  0  0  0
  2 11  1  0  0  0  0
 11 12  1  0  0  0  0
 12 13  1  0  0  0  0
 13 14  1  0  0  0  0
 14 15  4  0  0  0  0
 15 16  4  0  0  0  0
 16 17  1  0  0  0  0
 17 18  4  0  0  0  0
 18 19  4  0  0  0  0
 19 20  4  0  0  0  0
 20 21  1  0  0  0  0
 20 22  4  0  0  0  0
 22 23  4  0  0  0  0
 17 23  4  0  0  0  0
 16 24  4  0  0  0  0
 24 25  4  0  0  0  0
 14 25  4  0  0  0  0
 25 26  1  0  0  0  0
 11 26  1  0  0  0  0
M  END
>  <CdId>
164

>  <Mol Weight>
374.78

>  <Formula>
C18H13ClF2N4O

>  <Molecule ChEMBL ID>
CHEMBL4098822

>  <Molecule Max Phase>
None

>  <Molecular Weight>
374.78

>  <#RO5 Violations>
0

>  <AlogP>
3.53

>  <Compound Key>
1

>  <Standard Type>
IC50

>  <Standard Relation>
'>'

>  <Standard Value>
40000.0

>  <Standard Units>
nM

$$$$

  Mrv2114 03112311372D          

112122  0  0  1  0            999 V2000
   -3.3399    0.8945    0.0000 C   0  0  0  0  0  0  0  0  0  0  0  0
   -3.2671    0.0727    0.0000 N   0  0  0  0  0  0  0  0  0  0  0  0
   -2.5191   -0.2752    0.0000 C   0  0  1  0  0  0  0  0  0  0  0  0
   -1.8438    0.1987    0.0000 C   0  0  0  0  0  0  0  0  0  0  0  0
   -2.4463   -1.0970    0.0000 C   0  0  0  0  0  0  0  0  0  0  0  0
   -3.1216   -1.5709    0.0000 O   0  0  0  0  0  0  0  0  0  0  0  0
   -1.6982   -1.4449    0.0000 N   0  0  0  0  0  0  0  0  0  0  0  0
   -1.6254   -2.2666    0.0000 C   0  0  2  0  0  0  0  0  0  0  0  0
   -0.8774   -2.6145    0.0000 C   0  0  0  0  0  0  0  0  0  0  0  0
   -0.8046   -3.4363    0.0000 O   0  0  0  0  0  0  0  0  0  0  0  0
   -0.2021   -2.1406    0.0000 N   0  0  0  0  0  0  0  0  0  0  0  0
   -0.1959   -1.3063    0.0000 C   0  0  0  0  0  0  0  0  0  0  0  0
    0.6001   -1.0267    0.0000 C   0  0  1  0  0  0  0  0  0  0  0  0
    0.8768   -0.2089    0.0000 C   0  0  0  0  0  0  0  0  0  0  0  0
    1.2281    0.5634    0.0000 C   0  0  0  0  0  0  0  0  0  0  0  0
    1.6734    1.2764    0.0000 C   0  0  0  0  0  0  0  0  0  0  0  0
    2.2275    1.9112    0.0000 C   0  0  0  0  0  0  0  0  0  0  0  0
    2.9077    2.4212    0.0000 O   0  0  0  0  0  0  0  0  0  0  0  0
    3.7140    2.7214    0.0000 C   0  0  0  0  0  0  0  0  0  0  0  0
    4.2512    2.0773    0.0000 C   0  0  0  0  0  0  0  0  0  0  0  0
    5.0766    2.1844    0.0000 C   0  0  0  0  0  0  0  0  0  0  0  0
    5.4140    2.9543    0.0000 C   0  0  0  0  0  0  0  0  0  0  0  0
    4.8826    3.6101    0.0000 C   0  0  0  0  0  0  0  0  0  0  0  0
    4.0543    3.4932    0.0000 C   0  0  0  0  0  0  0  0  0  0  0  0
    6.2706    2.8982    0.0000 C   0  0  0  0  0  0  0  0  0  0  0  0
    7.0880    2.6686    0.0000 C   0  0  1  0  0  0  0  0  0  0  0  0
    7.3804    3.4401    0.0000 C   0  0  0  0  0  0  0  0  0  0  0  0
    6.8586    4.0790    0.0000 O   0  0  0  0  0  0  0  0  0  0  0  0
    8.1947    3.5726    0.0000 O   0  0  0  0  0  0  0  0  0  0  0  0
    7.8477    2.3009    0.0000 N   0  0  0  0  0  0  0  0  0  0  0  0
    8.5506    1.8305    0.0000 C   0  0  0  0  0  0  0  0  0  0  0  0
    9.0710    2.4707    0.0000 O   0  0  0  0  0  0  0  0  0  0  0  0
    9.1539    1.2393    0.0000 C   0  0  2  0  0  0  0  0  0  0  0  0
    9.7912    1.7633    0.0000 C   0  0  0  0  0  0  0  0  0  0  0  0
   10.5635    1.4734    0.0000 C   0  0  0  0  0  0  0  0  0  0  0  0
   10.6986    0.6595    0.0000 C   0  0  0  0  0  0  0  0  0  0  0  0
   11.4710    0.3696    0.0000 C   0  0  0  0  0  0  0  0  0  0  0  0
   12.1083    0.8935    0.0000 C   0  0  0  0  0  0  0  0  0  0  0  0
   12.8807    0.6036    0.0000 C   0  0  0  0  0  0  0  0  0  0  0  0
   13.5179    1.1275    0.0000 C   0  0  0  0  0  0  0  0  0  0  0  0
   13.3828    1.9414    0.0000 C   0  0  0  0  0  0  0  0  0  0  0  0
   12.6105    2.2313    0.0000 C   0  0  0  0  0  0  0  0  0  0  0  0
   11.9732    1.7074    0.0000 C   0  0  0  0  0  0  0  0  0  0  0  0
   11.2008    1.9973    0.0000 C   0  0  0  0  0  0  0  0  0  0  0  0
    9.6154    0.5360    0.0000 N   0  0  0  0  0  0  0  0  0  0  0  0
    9.9671   -0.2286    0.0000 C   0  0  0  0  0  0  0  0  0  0  0  0
   10.7276    0.0912    0.0000 O   0  0  0  0  0  0  0  0  0  0  0  0
   10.2718   -1.0260    0.0000 C   0  0  2  0  0  0  0  0  0  0  0  0
    9.7976   -1.7237    0.0000 C   0  0  0  0  0  0  0  0  0  0  0  0
   10.2673   -2.4301    0.0000 C   0  0  1  0  0  0  0  0  0  0  0  0
   11.0617   -2.1375    0.0000 C   0  0  0  0  0  0  0  0  0  0  0  0
   11.0651   -1.3042    0.0000 N   0  0  0  0  0  0  0  0  0  0  0  0
   11.7390   -0.8284    0.0000 C   0  0  0  0  0  0  0  0  0  0  0  0
   11.6640   -0.0069    0.0000 O   0  0  0  0  0  0  0  0  0  0  0  0
   12.4881   -1.1742    0.0000 C   0  0  1  0  0  0  0  0  0  0  0  0
   13.1620   -0.6984    0.0000 N   0  0  0  0  0  0  0  0  0  0  0  0
   13.9111   -1.0442    0.0000 C   0  0  0  0  0  0  0  0  0  0  0  0
   13.9861   -1.8658    0.0000 O   0  0  0  0  0  0  0  0  0  0  0  0
   14.5851   -0.5684    0.0000 C   0  0  2  0  0  0  0  0  0  0  0  0
   14.5100    0.2531    0.0000 C   0  0  0  0  0  0  0  0  0  0  0  0
   15.3341   -0.9142    0.0000 N   0  0  0  0  0  0  0  0  0  0  0  0
   16.0081   -0.4384    0.0000 C   0  0  0  0  0  0  0  0  0  0  0  0
   12.5631   -1.9958    0.0000 C   0  0  0  0  0  0  0  0  0  0  0  0
   12.6382   -2.8174    0.0000 C   0  0  0  0  0  0  0  0  0  0  0  0
   13.3847   -1.9208    0.0000 C   0  0  0  0  0  0  0  0  0  0  0  0
   11.7415   -2.0709    0.0000 C   0  0  0  0  0  0  0  0  0  0  0  0
   10.0466   -3.2862    0.0000 N   0  0  0  0  0  0  0  0  0  0  0  0
    9.2808   -3.6540    0.0000 C   0  0  0  0  0  0  0  0  0  0  0  0
    9.3365   -4.4948    0.0000 C   0  0  0  0  0  0  0  0  0  0  0  0
   10.1598   -4.6618    0.0000 N   0  0  0  0  0  0  0  0  0  0  0  0
   10.5811   -3.9426    0.0000 N   0  0  0  0  0  0  0  0  0  0  0  0
    8.7087   -5.0740    0.0000 C   0  0  0  0  0  0  0  0  0  0  0  0
    8.0319   -5.5875    0.0000 O   0  0  0  0  0  0  0  0  0  0  0  0
    7.2461   -5.9393    0.0000 C   0  0  0  0  0  0  0  0  0  0  0  0
    6.6705   -5.3289    0.0000 C   0  0  0  0  0  0  0  0  0  0  0  0
    5.8524   -5.4828    0.0000 C   0  0  0  0  0  0  0  0  0  0  0  0
    5.5603   -6.2703    0.0000 C   0  0  0  0  0  0  0  0  0  0  0  0
    6.1269   -6.8949    0.0000 C   0  0  0  0  0  0  0  0  0  0  0  0
    6.9484   -6.7281    0.0000 C   0  0  0  0  0  0  0  0  0  0  0  0
    4.7033   -6.2409    0.0000 C   0  0  0  0  0  0  0  0  0  0  0  0
    3.8801   -6.0320    0.0000 C   0  0  1  0  0  0  0  0  0  0  0  0
    3.6060   -6.8102    0.0000 N   0  0  0  0  0  0  0  0  0  0  0  0
    4.1429   -7.4366    0.0000 S   0  0  0  0  0  0  0  0  0  0  0  0
    3.5165   -7.9734    0.0000 O   0  0  0  0  0  0  0  0  0  0  0  0
    4.7693   -6.8997    0.0000 O   0  0  0  0  0  0  0  0  0  0  0  0
    4.6798   -8.0630    0.0000 C   0  0  0  0  0  0  0  0  0  0  0  0
    5.4580   -8.3370    0.0000 C   0  0  0  0  0  0  0  0  0  0  0  0
    4.8316   -8.8739    0.0000 C   0  0  0  0  0  0  0  0  0  0  0  0
    3.1116   -5.6808    0.0000 N   0  0  0  0  0  0  0  0  0  0  0  0
    2.3959   -5.2266    0.0000 C   0  0  0  0  0  0  0  0  0  0  0  0
    1.8927   -5.8803    0.0000 O   0  0  0  0  0  0  0  0  0  0  0  0
    1.7742   -4.6514    0.0000 C   0  0  2  0  0  0  0  0  0  0  0  0
    1.1538   -5.1952    0.0000 C   0  0  0  0  0  0  0  0  0  0  0  0
    0.3727   -4.9299    0.0000 C   0  0  0  0  0  0  0  0  0  0  0  0
    0.2119   -4.1207    0.0000 C   0  0  0  0  0  0  0  0  0  0  0  0
   -0.5693   -3.8554    0.0000 C   0  0  0  0  0  0  0  0  0  0  0  0
   -1.1897   -4.3992    0.0000 C   0  0  0  0  0  0  0  0  0  0  0  0
   -1.9708   -4.1339    0.0000 C   0  0  0  0  0  0  0  0  0  0  0  0
   -2.5912   -4.6778    0.0000 C   0  0  0  0  0  0  0  0  0  0  0  0
   -2.4304   -5.4869    0.0000 C   0  0  0  0  0  0  0  0  0  0  0  0
   -1.6492   -5.7523    0.0000 C   0  0  0  0  0  0  0  0  0  0  0  0
   -1.0289   -5.2084    0.0000 C   0  0  0  0  0  0  0  0  0  0  0  0
   -0.2477   -5.4738    0.0000 C   0  0  0  0  0  0  0  0  0  0  0  0
    1.2879   -3.9633    0.0000 N   0  0  0  0  0  0  0  0  0  0  0  0
    0.9104   -3.2111    0.0000 C   0  0  0  0  0  0  0  0  0  0  0  0
    0.1587   -3.5510    0.0000 O   0  0  0  0  0  0  0  0  0  0  0  0
    0.5907   -2.4206    0.0000 C   0  0  2  0  0  0  0  0  0  0  0  0
    1.0707   -1.7273    0.0000 C   0  0  0  0  0  0  0  0  0  0  0  0
   -2.3007   -2.7405    0.0000 C   0  0  0  0  0  0  0  0  0  0  0  0
   -2.7747   -2.0652    0.0000 C   0  0  0  0  0  0  0  0  0  0  0  0
   -1.8268   -3.4158    0.0000 C   0  0  0  0  0  0  0  0  0  0  0  0
   -2.9760   -3.2145    0.0000 C   0  0  0  0  0  0  0  0  0  0  0  0
  1  2  1  0  0  0  0
  3  2  1  0  0  0  0
  3  4  1  1  0  0  0
  3  5  1  0  0  0  0
  5  6  2  0  0  0  0
  5  7  1  0  0  0  0
  8  7  1  6  0  0  0
  8  9  1  0  0  0  0
  9 10  2  0  0  0  0
  9 11  1  0  0  0  0
 11 12  1  0  0  0  0
 13 12  1  0  0  0  0
 13 14  1  0  0  0  0
 14 15  1  0  0  0  0
 15 16  1  0  0  0  0
 16 17  1  0  0  0  0
 17 18  1  0  0  0  0
 18 19  1  0  0  0  0
 19 20  4  0  0  0  0
 20 21  4  0  0  0  0
 21 22  4  0  0  0  0
 22 23  4  0  0  0  0
 23 24  4  0  0  0  0
 19 24  4  0  0  0  0
 22 25  1  0  0  0  0
 26 25  1  0  0  0  0
 26 27  1  1  0  0  0
 27 28  2  0  0  0  0
 27 29  1  0  0  0  0
 26 30  1  0  0  0  0
 30 31  1  0  0  0  0
 31 32  2  0  0  0  0
 33 31  1  0  0  0  0
 33 34  1  6  0  0  0
 34 35  1  0  0  0  0
 35 36  4  0  0  0  0
 36 37  4  0  0  0  0
 37 38  4  0  0  0  0
 38 39  4  0  0  0  0
 39 40  4  0  0  0  0
 40 41  4  0  0  0  0
 41 42  4  0  0  0  0
 42 43  4  0  0  0  0
 38 43  4  0  0  0  0
 43 44  4  0  0  0  0
 35 44  4  0  0  0  0
 33 45  1  0  0  0  0
 45 46  1  0  0  0  0
 46 47  2  0  0  0  0
 48 46  1  0  0  0  0
 48 49  1  1  0  0  0
 50 49  1  1  0  0  0
 50 51  1  0  0  0  0
 51 52  1  0  0  0  0
 48 52  1  0  0  0  0
 52 53  1  0  0  0  0
 53 54  2  0  0  0  0
 55 53  1  0  0  0  0
 55 56  1  1  0  0  0
 56 57  1  0  0  0  0
 57 58  2  0  0  0  0
 59 57  1  0  0  0  0
 59 60  1  6  0  0  0
 59 61  1  0  0  0  0
 61 62  1  0  0  0  0
 55 63  1  0  0  0  0
 63 64  1  0  0  0  0
 63 65  1  0  0  0  0
 63 66  1  0  0  0  0
 50 67  1  0  0  0  0
 67 68  4  0  0  0  0
 68 69  4  0  0  0  0
 69 70  4  0  0  0  0
 70 71  4  0  0  0  0
 67 71  4  0  0  0  0
 69 72  1  0  0  0  0
 72 73  1  0  0  0  0
 73 74  1  0  0  0  0
 74 75  4  0  0  0  0
 75 76  4  0  0  0  0
 76 77  4  0  0  0  0
 77 78  4  0  0  0  0
 78 79  4  0  0  0  0
 74 79  4  0  0  0  0
 77 80  1  0  0  0  0
 81 80  1  0  0  0  0
 81 82  1  1  0  0  0
 82 83  1  0  0  0  0
 83 84  2  0  0  0  0
 83 85  2  0  0  0  0
 83 86  1  0  0  0  0
 86 87  1  0  0  0  0
 87 88  1  0  0  0  0
 86 88  1  0  0  0  0
 81 89  1  0  0  0  0
 89 90  1  0  0  0  0
 90 91  2  0  0  0  0
 92 90  1  0  0  0  0
 92 93  1  6  0  0  0
 93 94  1  0  0  0  0
 94 95  4  0  0  0  0
 95 96  4  0  0  0  0
 96 97  4  0  0  0  0
 97 98  4  0  0  0  0
 98 99  4  0  0  0  0
 99100  4  0  0  0  0
100101  4  0  0  0  0
101102  4  0  0  0  0
 97102  4  0  0  0  0
102103  4  0  0  0  0
 94103  4  0  0  0  0
 92104  1  0  0  0  0
104105  1  0  0  0  0
105106  2  0  0  0  0
107105  1  0  0  0  0
107 11  1  0  0  0  0
107108  1  1  0  0  0
 13108  1  1  0  0  0
  8109  1  0  0  0  0
109110  1  0  0  0  0
109111  1  0  0  0  0
109112  1  0  0  0  0
M  END
>  <CdId>
165

>  <Mol Weight>
1555.91

>  <Formula>
C83H106N14O14S

>  <Molecule ChEMBL ID>
CHEMBL3609325

>  <Molecule Max Phase>
None

>  <Molecular Weight>
1555.91

>  <#RO5 Violations>
None

>  <AlogP>
None

>  <Compound Key>
11

>  <Standard Type>
IC50

>  <Standard Relation>
'>'

>  <Standard Value>
20000.0

>  <Standard Units>
nM

$$$$

  Mrv2114 03112311372D          

 23 26  0  0  0  0            999 V2000
    8.3202   -1.5884    0.0000 C   0  0  0  0  0  0  0  0  0  0  0  0
    7.6058   -1.1759    0.0000 O   0  0  0  0  0  0  0  0  0  0  0  0
    6.8913   -1.5884    0.0000 C   0  0  0  0  0  0  0  0  0  0  0  0
    6.8913   -2.4134    0.0000 C   0  0  0  0  0  0  0  0  0  0  0  0
    6.1768   -2.8259    0.0000 C   0  0  0  0  0  0  0  0  0  0  0  0
    5.4623   -2.4134    0.0000 C   0  0  0  0  0  0  0  0  0  0  0  0
    4.6777   -2.6683    0.0000 N   0  0  0  0  0  0  0  0  0  0  0  0
    4.1928   -2.0009    0.0000 C   0  0  0  0  0  0  0  0  0  0  0  0
    3.3678   -2.0009    0.0000 S   0  0  0  0  0  0  0  0  0  0  0  0
    2.9553   -2.7154    0.0000 C   0  0  0  0  0  0  0  0  0  0  0  0
    2.1303   -2.7154    0.0000 C   0  0  0  0  0  0  0  0  0  0  0  0
    1.7178   -3.4298    0.0000 C   0  0  0  0  0  0  0  0  0  0  0  0
    0.8928   -3.4298    0.0000 C   0  0  0  0  0  0  0  0  0  0  0  0
    0.4803   -2.7154    0.0000 C   0  0  0  0  0  0  0  0  0  0  0  0
   -0.3447   -2.7154    0.0000 C   0  0  0  0  0  0  0  0  0  0  0  0
   -0.7572   -2.0009    0.0000 C   0  0  0  0  0  0  0  0  0  0  0  0
   -0.3447   -1.2864    0.0000 C   0  0  0  0  0  0  0  0  0  0  0  0
    0.4803   -1.2864    0.0000 C   0  0  0  0  0  0  0  0  0  0  0  0
    0.8928   -2.0009    0.0000 C   0  0  0  0  0  0  0  0  0  0  0  0
    1.7178   -2.0009    0.0000 C   0  0  0  0  0  0  0  0  0  0  0  0
    4.6777   -1.3335    0.0000 N   0  0  0  0  0  0  0  0  0  0  0  0
    5.4623   -1.5884    0.0000 C   0  0  0  0  0  0  0  0  0  0  0  0
    6.1768   -1.1759    0.0000 C   0  0  0  0  0  0  0  0  0  0  0  0
  1  2  1  0  0  0  0
  2  3  1  0  0  0  0
  3  4  4  0  0  0  0
  4  5  4  0  0  0  0
  5  6  4  0  0  0  0
  6  7  4  0  0  0  0
  7  8  4  0  0  0  0
  8  9  1  0  0  0  0
  9 10  1  0  0  0  0
 10 11  1  0  0  0  0
 11 12  4  0  0  0  0
 12 13  4  0  0  0  0
 13 14  4  0  0  0  0
 14 15  4  0  0  0  0
 15 16  4  0  0  0  0
 16 17  4  0  0  0  0
 17 18  4  0  0  0  0
 18 19  4  0  0  0  0
 14 19  4  0  0  0  0
 19 20  4  0  0  0  0
 11 20  4  0  0  0  0
  8 21  4  0  0  0  0
 21 22  4  0  0  0  0
  6 22  4  0  0  0  0
 22 23  4  0  0  0  0
  3 23  4  0  0  0  0
M  STY  1   1 DAT
M  SAL   1  1  21
M  SDT   1 MRV_IMPLICIT_H                                        
M  SDD   1     0.0000    0.0000    DR    ALL  0       0  
M  SED   1 IMPL_H1
M  END
>  <CdId>
166

>  <Mol Weight>
320.41

>  <Formula>
C19H16N2OS

>  <Molecule ChEMBL ID>
CHEMBL502335

>  <Molecule Max Phase>
None

>  <Molecular Weight>
320.42

>  <#RO5 Violations>
1

>  <AlogP>
5.02

>  <Compound Key>
23

>  <Standard Type>
IC50

>  <Standard Relation>
'='

>  <Standard Value>
510.0

>  <Standard Units>
nM

$$$$

  Mrv2114 03112311372D          

 32 34  0  0  0  0            999 V2000
    0.7145    2.0625    0.0000 O   0  0  0  0  0  0  0  0  0  0  0  0
    0.7145    1.2375    0.0000 C   0  0  0  0  0  0  0  0  0  0  0  0
    0.0000    0.8250    0.0000 O   0  0  0  0  0  0  0  0  0  0  0  0
    1.4289    0.8250    0.0000 C   0  0  0  0  0  0  0  0  0  0  0  0
    2.1434    1.2375    0.0000 O   0  0  0  0  0  0  0  0  0  0  0  0
    1.4289    0.0000    0.0000 C   0  0  0  0  0  0  0  0  0  0  0  0
    2.1434   -0.4125    0.0000 C   0  0  0  0  0  0  0  0  0  0  0  0
    2.8579    0.0000    0.0000 O   0  0  0  0  0  0  0  0  0  0  0  0
    2.1434   -1.2375    0.0000 C   0  0  0  0  0  0  0  0  0  0  0  0
    1.4289   -1.6500    0.0000 C   0  0  0  0  0  0  0  0  0  0  0  0
    1.4289   -2.4750    0.0000 C   0  0  0  0  0  0  0  0  0  0  0  0
    0.7145   -2.8875    0.0000 C   0  0  0  0  0  0  0  0  0  0  0  0
    0.0000   -2.4750    0.0000 C   0  0  0  0  0  0  0  0  0  0  0  0
   -0.7145   -2.8875    0.0000 C   0  0  0  0  0  0  0  0  0  0  0  0
   -1.4289   -2.4750    0.0000 C   0  0  0  0  0  0  0  0  0  0  0  0
   -1.4289   -1.6500    0.0000 C   0  0  0  0  0  0  0  0  0  0  0  0
   -2.1434   -1.2375    0.0000 F   0  0  0  0  0  0  0  0  0  0  0  0
   -0.7145   -1.2375    0.0000 C   0  0  0  0  0  0  0  0  0  0  0  0
    0.0000   -1.6500    0.0000 C   0  0  0  0  0  0  0  0  0  0  0  0
    0.7145   -1.2375    0.0000 F   0  0  0  0  0  0  0  0  0  0  0  0
    2.1434   -2.8875    0.0000 C   0  0  0  0  0  0  0  0  0  0  0  0
    2.8579   -2.4750    0.0000 N   0  0  0  0  0  0  0  0  0  0  0  0
    3.5724   -2.8875    0.0000 C   0  0  0  0  0  0  0  0  0  0  0  0
    3.5724   -3.7125    0.0000 C   0  0  0  0  0  0  0  0  0  0  0  0
    4.2868   -4.1250    0.0000 C   0  0  0  0  0  0  0  0  0  0  0  0
    4.2868   -4.9500    0.0000 C   0  0  0  0  0  0  0  0  0  0  0  0
    3.5724   -5.3625    0.0000 C   0  0  0  0  0  0  0  0  0  0  0  0
    2.8579   -4.9500    0.0000 C   0  0  0  0  0  0  0  0  0  0  0  0
    2.8579   -4.1250    0.0000 C   0  0  0  0  0  0  0  0  0  0  0  0
    2.1434   -3.7125    0.0000 F   0  0  0  0  0  0  0  0  0  0  0  0
    2.8579   -1.6500    0.0000 C   0  0  0  0  0  0  0  0  0  0  0  0
    3.5724   -1.2375    0.0000 O   0  0  0  0  0  0  0  0  0  0  0  0
  1  2  2  0  0  0  0
  2  3  1  0  0  0  0
  2  4  1  0  0  0  0
  4  5  1  0  0  0  0
  4  6  2  0  0  0  0
  6  7  1  0  0  0  0
  7  8  2  0  0  0  0
  7  9  1  0  0  0  0
  9 10  4  0  0  0  0
 10 11  4  0  0  0  0
 11 12  1  0  0  0  0
 12 13  1  0  0  0  0
 13 14  4  0  0  0  0
 14 15  4  0  0  0  0
 15 16  4  0  0  0  0
 16 17  1  0  0  0  0
 16 18  4  0  0  0  0
 18 19  4  0  0  0  0
 13 19  4  0  0  0  0
 19 20  1  0  0  0  0
 11 21  4  0  0  0  0
 21 22  4  0  0  0  0
 22 23  1  0  0  0  0
 23 24  1  0  0  0  0
 24 25  4  0  0  0  0
 25 26  4  0  0  0  0
 26 27  4  0  0  0  0
 27 28  4  0  0  0  0
 28 29  4  0  0  0  0
 24 29  4  0  0  0  0
 29 30  1  0  0  0  0
 22 31  4  0  0  0  0
  9 31  4  0  0  0  0
 31 32  2  0  0  0  0
M  END
>  <CdId>
167

>  <Mol Weight>
443.378

>  <Formula>
C23H16F3NO5

>  <Molecule ChEMBL ID>
CHEMBL2043144

>  <Molecule Max Phase>
None

>  <Molecular Weight>
443.38

>  <#RO5 Violations>
0

>  <AlogP>
3.61

>  <Compound Key>
2

>  <Standard Type>
IC50

>  <Standard Relation>
'>'

>  <Standard Value>
65000.0

>  <Standard Units>
nM

$$$$

  Mrv2114 03112311372D          

 34 37  0  0  1  0            999 V2000
    4.7293    8.4901    0.0000 C   0  0  0  0  0  0  0  0  0  0  0  0
    5.0114    7.7148    0.0000 O   0  0  0  0  0  0  0  0  0  0  0  0
    4.4811    7.0828    0.0000 C   0  0  0  0  0  0  0  0  0  0  0  0
    4.7633    6.3076    0.0000 C   0  0  0  0  0  0  0  0  0  0  0  0
    4.2330    5.6756    0.0000 N   0  0  0  0  0  0  0  0  0  0  0  0
    3.4205    5.8189    0.0000 C   0  0  0  0  0  0  0  0  0  0  0  0
    2.8902    5.1869    0.0000 C   0  0  0  0  0  0  0  0  0  0  0  0
    3.1724    4.4116    0.0000 O   0  0  0  0  0  0  0  0  0  0  0  0
    2.0778    5.3301    0.0000 N   0  0  0  0  0  0  0  0  0  0  0  0
    1.5475    4.6981    0.0000 C   0  0  0  0  0  0  0  0  0  0  0  0
    1.8296    3.9229    0.0000 C   0  0  0  0  0  0  0  0  0  0  0  0
    1.2993    3.2909    0.0000 C   0  0  0  0  0  0  0  0  0  0  0  0
    1.5815    2.5157    0.0000 F   0  0  0  0  0  0  0  0  0  0  0  0
    0.4869    3.4342    0.0000 C   0  0  0  0  0  0  0  0  0  0  0  0
   -0.0434    2.8022    0.0000 F   0  0  0  0  0  0  0  0  0  0  0  0
    0.2047    4.2094    0.0000 C   0  0  0  0  0  0  0  0  0  0  0  0
   -0.6078    4.3527    0.0000 C   0  0  2  0  0  0  0  0  0  0  0  0
   -0.3256    5.1279    0.0000 C   0  0  0  0  0  0  0  0  0  0  0  0
   -0.6078    3.5277    0.0000 C   0  0  0  0  0  0  0  0  0  0  0  0
   -1.3222    3.1152    0.0000 C   0  0  1  0  0  0  0  0  0  0  0  0
   -1.3222    2.2902    0.0000 C   0  0  0  0  0  0  0  0  0  0  0  0
   -0.6548    1.8053    0.0000 C   0  0  0  0  0  0  0  0  0  0  0  0
    0.1298    2.0602    0.0000 C   0  0  0  0  0  0  0  0  0  0  0  0
   -0.9097    1.0206    0.0000 N   0  0  0  0  0  0  0  0  0  0  0  0
   -1.7347    1.0206    0.0000 O   0  0  0  0  0  0  0  0  0  0  0  0
   -1.9897    1.8053    0.0000 C   0  0  0  0  0  0  0  0  0  0  0  0
   -2.7743    2.0602    0.0000 C   0  0  0  0  0  0  0  0  0  0  0  0
   -2.0367    3.5277    0.0000 S   0  0  0  0  0  0  0  0  0  0  0  0
   -2.0367    4.3527    0.0000 C   0  0  0  0  0  0  0  0  0  0  0  0
   -2.7512    4.7652    0.0000 N   0  0  0  0  0  0  0  0  0  0  0  0
   -1.3222    4.7652    0.0000 N   0  0  0  0  0  0  0  0  0  0  0  0
    0.7350    4.8414    0.0000 C   0  0  0  0  0  0  0  0  0  0  0  0
    3.1384    6.5941    0.0000 C   0  0  0  0  0  0  0  0  0  0  0  0
    3.6687    7.2261    0.0000 N   0  0  0  0  0  0  0  0  0  0  0  0
  1  2  1  0  0  0  0
  2  3  1  0  0  0  0
  3  4  4  0  0  0  0
  4  5  4  0  0  0  0
  5  6  4  0  0  0  0
  6  7  1  0  0  0  0
  7  8  2  0  0  0  0
  7  9  1  0  0  0  0
  9 10  1  0  0  0  0
 10 11  4  0  0  0  0
 11 12  4  0  0  0  0
 12 13  1  0  0  0  0
 12 14  4  0  0  0  0
 14 15  1  0  0  0  0
 14 16  4  0  0  0  0
 17 16  1  6  0  0  0
 17 18  1  1  0  0  0
 17 19  1  0  0  0  0
 20 19  1  0  0  0  0
 20 21  1  1  0  0  0
 21 22  4  0  0  0  0
 22 23  1  0  0  0  0
 22 24  4  0  0  0  0
 24 25  4  0  0  0  0
 25 26  4  0  0  0  0
 21 26  4  0  0  0  0
 26 27  1  0  0  0  0
 20 28  1  0  0  0  0
 28 29  1  0  0  0  0
 29 30  1  0  0  0  0
 29 31  2  0  0  0  0
 17 31  1  0  0  0  0
 16 32  4  0  0  0  0
 10 32  4  0  0  0  0
  6 33  4  0  0  0  0
 33 34  4  0  0  0  0
  3 34  4  0  0  0  0
M  END
>  <CdId>
168

>  <Mol Weight>
488.51

>  <Formula>
C22H22F2N6O3S

>  <Molecule ChEMBL ID>
CHEMBL3805852

>  <Molecule Max Phase>
None

>  <Molecular Weight>
488.52

>  <#RO5 Violations>
0

>  <AlogP>
4.03

>  <Compound Key>
26

>  <Standard Type>
IC50

>  <Standard Relation>
'='

>  <Standard Value>
5000.0

>  <Standard Units>
nM

$$$$

  Mrv2114 03112311372D          

 32 35  0  0  1  0            999 V2000
    5.2209    0.7068    0.0000 C   0  0  0  0  0  0  0  0  0  0  0  0
    5.3641   -0.1057    0.0000 O   0  0  0  0  0  0  0  0  0  0  0  0
    4.7321   -0.6360    0.0000 C   0  0  0  0  0  0  0  0  0  0  0  0
    4.8754   -1.4484    0.0000 C   0  0  0  0  0  0  0  0  0  0  0  0
    4.2434   -1.9787    0.0000 C   0  0  0  0  0  0  0  0  0  0  0  0
    3.4682   -1.6966    0.0000 C   0  0  0  0  0  0  0  0  0  0  0  0
    2.8362   -2.2269    0.0000 O   0  0  0  0  0  0  0  0  0  0  0  0
    2.0609   -1.9447    0.0000 C   0  0  0  0  0  0  0  0  0  0  0  0
    1.4289   -2.4750    0.0000 C   0  0  1  0  0  0  0  0  0  0  0  0
    0.7970   -1.9447    0.0000 C   0  0  0  0  0  0  0  0  0  0  0  0
    0.0217   -2.2269    0.0000 C   0  0  0  0  0  0  0  0  0  0  0  0
   -0.6103   -1.6966    0.0000 C   0  0  0  0  0  0  0  0  0  0  0  0
   -0.4670   -0.8841    0.0000 C   0  0  0  0  0  0  0  0  0  0  0  0
    0.3082   -0.6019    0.0000 C   0  0  0  0  0  0  0  0  0  0  0  0
    0.9402   -1.1322    0.0000 C   0  0  0  0  0  0  0  0  0  0  0  0
    1.8414   -3.1895    0.0000 C   0  0  0  0  0  0  0  0  0  0  0  0
    1.0164   -3.1895    0.0000 C   0  0  1  0  0  0  0  0  0  0  0  0
    0.3020   -3.6020    0.0000 C   0  0  0  0  0  0  0  0  0  0  0  0
   -0.4125   -3.1895    0.0000 O   0  0  0  0  0  0  0  0  0  0  0  0
    0.3020   -4.4270    0.0000 N   0  0  0  0  0  0  0  0  0  0  0  0
   -0.4125   -4.8395    0.0000 C   0  0  0  0  0  0  0  0  0  0  0  0
   -0.4125   -5.6645    0.0000 C   0  0  0  0  0  0  0  0  0  0  0  0
   -1.1270   -6.0770    0.0000 C   0  0  0  0  0  0  0  0  0  0  0  0
   -1.8414   -5.6645    0.0000 C   0  0  0  0  0  0  0  0  0  0  0  0
   -2.5559   -6.0770    0.0000 C   0  0  0  0  0  0  0  0  0  0  0  0
   -3.2704   -6.4895    0.0000 N   0  0  0  0  0  0  0  0  0  0  0  0
   -1.8414   -4.8395    0.0000 C   0  0  0  0  0  0  0  0  0  0  0  0
   -1.1270   -4.4270    0.0000 N   0  0  0  0  0  0  0  0  0  0  0  0
    3.3249   -0.8841    0.0000 C   0  0  0  0  0  0  0  0  0  0  0  0
    3.9569   -0.3538    0.0000 C   0  0  0  0  0  0  0  0  0  0  0  0
    3.8136    0.4587    0.0000 O   0  0  0  0  0  0  0  0  0  0  0  0
    4.4456    0.9890    0.0000 C   0  0  0  0  0  0  0  0  0  0  0  0
  1  2  1  0  0  0  0
  2  3  1  0  0  0  0
  3  4  4  0  0  0  0
  4  5  4  0  0  0  0
  5  6  4  0  0  0  0
  6  7  1  0  0  0  0
  7  8  1  0  0  0  0
  9  8  1  1  0  0  0
  9 10  1  6  0  0  0
 10 11  4  0  0  0  0
 11 12  4  0  0  0  0
 12 13  4  0  0  0  0
 13 14  4  0  0  0  0
 14 15  4  0  0  0  0
 10 15  4  0  0  0  0
  9 16  1  0  0  0  0
 17 16  1  0  0  0  0
  9 17  1  0  0  0  0
 17 18  1  1  0  0  0
 18 19  2  0  0  0  0
 18 20  1  0  0  0  0
 20 21  1  0  0  0  0
 21 22  4  0  0  0  0
 22 23  4  0  0  0  0
 23 24  4  0  0  0  0
 24 25  1  0  0  0  0
 25 26  3  0  0  0  0
 24 27  4  0  0  0  0
 27 28  4  0  0  0  0
 21 28  4  0  0  0  0
  6 29  4  0  0  0  0
 29 30  4  0  0  0  0
  3 30  4  0  0  0  0
 30 31  1  0  0  0  0
 31 32  1  0  0  0  0
M  END
>  <CdId>
169

>  <Mol Weight>
429.476

>  <Formula>
C25H23N3O4

>  <Molecule ChEMBL ID>
CHEMBL3343259

>  <Molecule Max Phase>
None

>  <Molecular Weight>
429.48

>  <#RO5 Violations>
0

>  <AlogP>
3.95

>  <Compound Key>
(-)-5

>  <Standard Type>
IC50

>  <Standard Relation>
'='

>  <Standard Value>
8000.0

>  <Standard Units>
nM

$$$$

  Mrv2114 03112311372D          

 14 12  0  0  0  0            999 V2000
    1.4885    1.3406    0.0000 C   0  0  0  0  0  0  0  0  0  0  0  0
    0.7740    0.9281    0.0000 O   0  0  0  0  0  0  0  0  0  0  0  0
    0.7740    0.1031    0.0000 C   0  0  0  0  0  0  0  0  0  0  0  0
    1.4885   -0.3094    0.0000 C   0  0  0  0  0  0  0  0  0  0  0  0
    1.4885   -1.1344    0.0000 C   0  0  0  0  0  0  0  0  0  0  0  0
    0.7740   -1.5469    0.0000 N   0  0  0  0  0  0  0  0  0  0  0  0
    0.0595   -1.1344    0.0000 C   0  0  0  0  0  0  0  0  0  0  0  0
    0.0595   -0.3094    0.0000 C   0  0  0  0  0  0  0  0  0  0  0  0
   -0.6549    0.1031    0.0000 C   0  0  0  0  0  0  0  0  0  0  0  0
   -1.3694    0.5156    0.0000 C   0  0  0  0  0  0  0  0  0  0  0  0
   -2.0839    0.9281    0.0000 C   0  0  0  0  0  0  0  0  0  0  0  0
   -2.7983    0.5156    0.0000 N   0  0  0  0  0  0  0  0  0  0  0  0
    3.4921    0.0000    0.0000 Cl  0  0  0  0  0  0  0  0  0  0  0  0
    0.0000   -3.1969    0.0000 Cl  0  0  0  0  0  0  0  0  0  0  0  0
  1  2  1  0  0  0  0
  2  3  1  0  0  0  0
  3  4  4  0  0  0  0
  4  5  4  0  0  0  0
  5  6  4  0  0  0  0
  6  7  4  0  0  0  0
  7  8  4  0  0  0  0
  3  8  4  0  0  0  0
  8  9  1  0  0  0  0
  9 10  3  0  0  0  0
 10 11  1  0  0  0  0
 11 12  1  0  0  0  0
M  END
>  <CdId>
170

>  <Mol Weight>
235.11

>  <Formula>
C9H12Cl2N2O

>  <Molecule ChEMBL ID>
CHEMBL4167560

>  <Molecule Max Phase>
None

>  <Molecular Weight>
235.11

>  <#RO5 Violations>
0

>  <AlogP>
0.4

>  <Compound Key>
4j

>  <Standard Type>
IC50

>  <Standard Relation>
'>'

>  <Standard Value>
50000.0

>  <Standard Units>
nM

$$$$

  Mrv2114 03112311372D          

 26 29  0  0  0  0            999 V2000
    6.0157    1.4535    0.0000 O   0  0  0  0  0  0  0  0  0  0  0  0
    5.3918    1.9934    0.0000 C   0  0  0  0  0  0  0  0  0  0  0  0
    4.6124    1.7230    0.0000 C   0  0  0  0  0  0  0  0  0  0  0  0
    4.4568    0.9128    0.0000 C   0  0  0  0  0  0  0  0  0  0  0  0
    3.6774    0.6425    0.0000 C   0  0  0  0  0  0  0  0  0  0  0  0
    3.0005    1.1142    0.0000 C   0  0  0  0  0  0  0  0  0  0  0  0
    2.3427    0.6162    0.0000 N   0  0  0  0  0  0  0  0  0  0  0  0
    2.6131   -0.1633    0.0000 C   0  0  0  0  0  0  0  0  0  0  0  0
    3.4379   -0.1470    0.0000 N   0  0  0  0  0  0  0  0  0  0  0  0
    1.9554   -0.6613    0.0000 S   0  0  0  0  0  0  0  0  0  0  0  0
    1.2785   -0.1896    0.0000 C   0  0  0  0  0  0  0  0  0  0  0  0
    0.4750   -0.3770    0.0000 C   0  0  0  0  0  0  0  0  0  0  0  0
   -0.0890    0.2251    0.0000 C   0  0  0  0  0  0  0  0  0  0  0  0
   -0.8924    0.0377    0.0000 O   0  0  0  0  0  0  0  0  0  0  0  0
    0.1505    1.0146    0.0000 C   0  0  0  0  0  0  0  0  0  0  0  0
    0.9539    1.2020    0.0000 C   0  0  0  0  0  0  0  0  0  0  0  0
    1.5179    0.5999    0.0000 C   0  0  0  0  0  0  0  0  0  0  0  0
    5.5474    2.8036    0.0000 N   0  0  0  0  0  0  0  0  0  0  0  0
    6.3269    3.0739    0.0000 C   0  0  0  0  0  0  0  0  0  0  0  0
    6.5663    3.8634    0.0000 C   0  0  0  0  0  0  0  0  0  0  0  0
    6.0683    4.5212    0.0000 C   0  0  0  0  0  0  0  0  0  0  0  0
    6.3889    5.2813    0.0000 O   0  0  0  0  0  0  0  0  0  0  0  0
    5.2497    4.4188    0.0000 O   0  0  0  0  0  0  0  0  0  0  0  0
    7.3911    3.8797    0.0000 C   0  0  0  0  0  0  0  0  0  0  0  0
    7.6615    3.1003    0.0000 C   0  0  0  0  0  0  0  0  0  0  0  0
    7.0037    2.6023    0.0000 C   0  0  0  0  0  0  0  0  0  0  0  0
  1  2  2  0  0  0  0
  2  3  1  0  0  0  0
  3  4  1  0  0  0  0
  4  5  1  0  0  0  0
  5  6  4  0  0  0  0
  6  7  4  0  0  0  0
  7  8  4  0  0  0  0
  8  9  4  0  0  0  0
  5  9  4  0  0  0  0
  8 10  4  0  0  0  0
 10 11  4  0  0  0  0
 11 12  4  0  0  0  0
 12 13  4  0  0  0  0
 13 14  1  0  0  0  0
 13 15  4  0  0  0  0
 15 16  4  0  0  0  0
 16 17  4  0  0  0  0
 11 17  4  0  0  0  0
  7 17  4  0  0  0  0
  2 18  1  0  0  0  0
 18 19  1  0  0  0  0
 19 20  2  0  0  0  0
 20 21  1  0  0  0  0
 21 22  2  0  0  0  0
 21 23  1  0  0  0  0
 20 24  1  0  0  0  0
 24 25  1  0  0  0  0
 25 26  1  0  0  0  0
 19 26  1  0  0  0  0
M  END
>  <CdId>
171

>  <Mol Weight>
371.41

>  <Formula>
C18H17N3O4S

>  <Molecule ChEMBL ID>
CHEMBL485327

>  <Molecule Max Phase>
None

>  <Molecular Weight>
371.42

>  <#RO5 Violations>
0

>  <AlogP>
2.83

>  <Compound Key>
3h

>  <Standard Type>
IC50

$$$$

  Mrv2114 03112311372D          

 28 31  0  0  0  0            999 V2000
    5.4896   -1.6384    0.0000 O   0  0  0  0  0  0  0  0  0  0  0  0
    5.6358   -0.8265    0.0000 C   0  0  0  0  0  0  0  0  0  0  0  0
    5.0058   -0.2939    0.0000 C   0  0  0  0  0  0  0  0  0  0  0  0
    4.2295   -0.5732    0.0000 C   0  0  0  0  0  0  0  0  0  0  0  0
    3.5995   -0.0406    0.0000 C   0  0  0  0  0  0  0  0  0  0  0  0
    3.6601    0.7822    0.0000 C   0  0  0  0  0  0  0  0  0  0  0  0
    2.8963    1.0941    0.0000 N   0  0  0  0  0  0  0  0  0  0  0  0
    2.3637    0.4640    0.0000 N   0  0  0  0  0  0  0  0  0  0  0  0
    2.7983   -0.2372    0.0000 C   0  0  0  0  0  0  0  0  0  0  0  0
    2.4083   -0.9642    0.0000 C   0  0  0  0  0  0  0  0  0  0  0  0
    1.5837   -0.9900    0.0000 C   0  0  0  0  0  0  0  0  0  0  0  0
    1.1491   -0.2887    0.0000 C   0  0  0  0  0  0  0  0  0  0  0  0
    0.3245   -0.3145    0.0000 C   0  0  0  0  0  0  0  0  0  0  0  0
   -0.1101    0.3867    0.0000 C   0  0  0  0  0  0  0  0  0  0  0  0
   -0.9347    0.3610    0.0000 O   0  0  0  0  0  0  0  0  0  0  0  0
    0.2799    1.1137    0.0000 C   0  0  0  0  0  0  0  0  0  0  0  0
    1.1045    1.1395    0.0000 C   0  0  0  0  0  0  0  0  0  0  0  0
    1.5391    0.4383    0.0000 C   0  0  0  0  0  0  0  0  0  0  0  0
    6.4121   -0.5472    0.0000 N   0  0  0  0  0  0  0  0  0  0  0  0
    7.0422   -1.0798    0.0000 C   0  0  0  0  0  0  0  0  0  0  0  0
    6.8959   -1.8917    0.0000 C   0  0  0  0  0  0  0  0  0  0  0  0
    7.5259   -2.4243    0.0000 C   0  0  0  0  0  0  0  0  0  0  0  0
    8.3022   -2.1450    0.0000 C   0  0  0  0  0  0  0  0  0  0  0  0
    8.4485   -1.3331    0.0000 C   0  0  0  0  0  0  0  0  0  0  0  0
    7.8184   -0.8005    0.0000 C   0  0  0  0  0  0  0  0  0  0  0  0
    7.9647    0.0115    0.0000 C   0  0  0  0  0  0  0  0  0  0  0  0
    7.3346    0.5441    0.0000 O   0  0  0  0  0  0  0  0  0  0  0  0
    8.7410    0.2908    0.0000 O   0  0  0  0  0  0  0  0  0  0  0  0
  1  2  2  0  0  0  0
  2  3  1  0  0  0  0
  3  4  1  0  0  0  0
  4  5  1  0  0  0  0
  5  6  4  0  0  0  0
  6  7  4  0  0  0  0
  7  8  4  0  0  0  0
  8  9  4  0  0  0  0
  5  9  4  0  0  0  0
  9 10  1  0  0  0  0
 10 11  1  0  0  0  0
 11 12  1  0  0  0  0
 12 13  4  0  0  0  0
 13 14  4  0  0  0  0
 14 15  1  0  0  0  0
 14 16  4  0  0  0  0
 16 17  4  0  0  0  0
 17 18  4  0  0  0  0
 12 18  4  0  0  0  0
  8 18  1  0  0  0  0
  2 19  1  0  0  0  0
 19 20  1  0  0  0  0
 20 21  4  0  0  0  0
 21 22  4  0  0  0  0
 22 23  4  0  0  0  0
 23 24  4  0  0  0  0
 24 25  4  0  0  0  0
 20 25  4  0  0  0  0
 25 26  1  0  0  0  0
 26 27  2  0  0  0  0
 26 28  1  0  0  0  0
M  END
>  <CdId>
172

>  <Mol Weight>
377.4

>  <Formula>
C21H19N3O4

>  <Molecule ChEMBL ID>
CHEMBL482768

>  <Molecule Max Phase>
None

>  <Molecular Weight>
377.4

>  <#RO5 Violations>
0

>  <AlogP>
2.95

>  <Compound Key>
2g

>  <Standard Type>
IC50

>  <Standard Relation>
'='

>  <Standard Value>
11000.0

>  <Standard Units>
nM

$$$$

  Mrv2114 03112311372D          

 40 42  0  0  1  0            999 V2000
    0.8212    2.8259    0.0000 C   0  0  0  0  0  0  0  0  0  0  0  0
    0.1067    3.2384    0.0000 C   0  0  2  0  0  0  0  0  0  0  0  0
   -0.6078    2.8259    0.0000 N   0  0  0  0  0  0  0  0  0  0  0  0
   -0.6078    2.0009    0.0000 S   0  0  0  0  0  0  0  0  0  0  0  0
    0.2172    2.0009    0.0000 O   0  0  0  0  0  0  0  0  0  0  0  0
   -1.4328    2.0009    0.0000 O   0  0  0  0  0  0  0  0  0  0  0  0
   -0.6078    1.1759    0.0000 C   0  0  0  0  0  0  0  0  0  0  0  0
   -1.3222    0.7634    0.0000 C   0  0  0  0  0  0  0  0  0  0  0  0
   -1.3222   -0.0616    0.0000 C   0  0  0  0  0  0  0  0  0  0  0  0
   -0.6078   -0.4741    0.0000 C   0  0  0  0  0  0  0  0  0  0  0  0
   -0.6078   -1.2991    0.0000 C   0  0  0  0  0  0  0  0  0  0  0  0
    0.0597   -1.7840    0.0000 S   0  0  0  0  0  0  0  0  0  0  0  0
   -0.1953   -2.5687    0.0000 C   0  0  0  0  0  0  0  0  0  0  0  0
    0.2897   -3.2361    0.0000 C   0  0  0  0  0  0  0  0  0  0  0  0
    1.1101   -3.1499    0.0000 O   0  0  0  0  0  0  0  0  0  0  0  0
   -0.0459   -3.9898    0.0000 N   0  0  0  0  0  0  0  0  0  0  0  0
    0.4390   -4.6572    0.0000 C   0  0  0  0  0  0  0  0  0  0  0  0
    0.1035   -5.4109    0.0000 C   0  0  0  0  0  0  0  0  0  0  0  0
   -0.2321   -6.1646    0.0000 C   0  0  0  0  0  0  0  0  0  0  0  0
    0.8571   -5.7464    0.0000 C   0  0  0  0  0  0  0  0  0  0  0  0
   -0.6502   -5.0753    0.0000 O   0  0  0  0  0  0  0  0  0  0  0  0
   -1.0203   -2.5687    0.0000 N   0  0  0  0  0  0  0  0  0  0  0  0
   -1.2752   -1.7840    0.0000 C   0  0  0  0  0  0  0  0  0  0  0  0
   -2.0598   -1.5291    0.0000 C   0  0  0  0  0  0  0  0  0  0  0  0
   -2.2314   -0.7221    0.0000 O   0  0  0  0  0  0  0  0  0  0  0  0
   -2.6729   -2.0811    0.0000 N   0  0  0  0  0  0  0  0  0  0  0  0
   -2.5014   -2.8881    0.0000 C   0  0  0  0  0  0  0  0  0  0  0  0
   -3.1145   -3.4401    0.0000 C   0  0  0  0  0  0  0  0  0  0  0  0
   -3.8991   -3.1852    0.0000 C   0  0  0  0  0  0  0  0  0  0  0  0
   -4.0706   -2.3782    0.0000 C   0  0  0  0  0  0  0  0  0  0  0  0
   -3.4575   -1.8262    0.0000 C   0  0  2  0  0  0  0  0  0  0  0  0
   -3.6291   -1.0192    0.0000 C   0  0  0  0  0  0  0  0  0  0  0  0
    0.1067   -0.0616    0.0000 C   0  0  0  0  0  0  0  0  0  0  0  0
    0.8212   -0.4741    0.0000 Cl  0  0  0  0  0  0  0  0  0  0  0  0
    0.1067    0.7634    0.0000 C   0  0  0  0  0  0  0  0  0  0  0  0
    0.8212    1.1759    0.0000 Cl  0  0  0  0  0  0  0  0  0  0  0  0
    0.1067    4.0634    0.0000 C   0  0  0  0  0  0  0  0  0  0  0  0
    0.1067    4.8884    0.0000 F   0  0  0  0  0  0  0  0  0  0  0  0
    0.9317    4.0634    0.0000 F   0  0  0  0  0  0  0  0  0  0  0  0
   -0.7183    4.0634    0.0000 F   0  0  0  0  0  0  0  0  0  0  0  0
  2  1  1  6  0  0  0
  2  3  1  0  0  0  0
  3  4  1  0  0  0  0
  4  5  2  0  0  0  0
  4  6  2  0  0  0  0
  4  7  1  0  0  0  0
  7  8  4  0  0  0  0
  8  9  4  0  0  0  0
  9 10  4  0  0  0  0
 10 11  1  0  0  0  0
 11 12  4  0  0  0  0
 12 13  4  0  0  0  0
 13 14  1  0  0  0  0
 14 15  2  0  0  0  0
 14 16  1  0  0  0  0
 16 17  1  0  0  0  0
 17 18  1  0  0  0  0
 18 19  1  0  0  0  0
 18 20  1  0  0  0  0
 18 21  1  0  0  0  0
 13 22  4  0  0  0  0
 22 23  4  0  0  0  0
 11 23  4  0  0  0  0
 23 24  1  0  0  0  0
 24 25  2  0  0  0  0
 24 26  1  0  0  0  0
 26 27  1  0  0  0  0
 27 28  1  0  0  0  0
 28 29  1  0  0  0  0
 29 30  1  0  0  0  0
 31 30  1  0  0  0  0
 31 26  1  0  0  0  0
 31 32  1  6  0  0  0
 10 33  4  0  0  0  0
 33 34  1  0  0  0  0
 33 35  4  0  0  0  0
  7 35  4  0  0  0  0
 35 36  1  0  0  0  0
  2 37  1  0  0  0  0
 37 38  1  0  0  0  0
 37 39  1  0  0  0  0
 37 40  1  0  0  0  0
M  END
>  <CdId>
173

>  <Mol Weight>
645.53

>  <Formula>
C24H29Cl2F3N4O5S2

>  <Molecule ChEMBL ID>
CHEMBL4634571

>  <Molecule Max Phase>
None

>  <Molecular Weight>
645.55

>  <#RO5 Violations>
1

>  <AlogP>
4.86

>  <Compound Key>
1d

>  <Standard Type>
IC50

>  <Standard Relation>
'>'

>  <Standard Value>
10000.0

>  <Standard Units>
nM

$$$$

  Mrv2114 03112311372D          

 23 21  0  0  0  0            999 V2000
    0.0000    0.0000    0.0000 Cl  0  0  0  0  0  0  0  0  0  0  0  0
    2.0036    0.0000    0.0000 Cl  0  0  0  0  0  0  0  0  0  0  0  0
    4.0071    0.0000    0.0000 Cl  0  0  0  0  0  0  0  0  0  0  0  0
    0.0000   -3.8945    0.0000 Cl  0  0  0  0  0  0  0  0  0  0  0  0
    5.6918   -1.6500    0.0000 N   0  0  0  0  0  0  0  0  0  0  0  0
    4.9774   -2.0625    0.0000 C   0  0  0  0  0  0  0  0  0  0  0  0
    4.9774   -2.8875    0.0000 C   0  0  0  0  0  0  0  0  0  0  0  0
    5.6448   -3.3724    0.0000 C   0  0  0  0  0  0  0  0  0  0  0  0
    5.3899   -4.1570    0.0000 C   0  0  0  0  0  0  0  0  0  0  0  0
    4.5649   -4.1570    0.0000 C   0  0  0  0  0  0  0  0  0  0  0  0
    4.0799   -4.8245    0.0000 C   0  0  0  0  0  0  0  0  0  0  0  0
    4.4155   -5.5782    0.0000 C   0  0  0  0  0  0  0  0  0  0  0  0
    3.9306   -6.2456    0.0000 N   0  0  0  0  0  0  0  0  0  0  0  0
    3.1101   -6.1594    0.0000 C   0  0  0  0  0  0  0  0  0  0  0  0
    2.7745   -5.4057    0.0000 C   0  0  0  0  0  0  0  0  0  0  0  0
    3.2595   -4.7382    0.0000 C   0  0  0  0  0  0  0  0  0  0  0  0
    2.9239   -3.9846    0.0000 C   0  0  0  0  0  0  0  0  0  0  0  0
    2.1034   -3.8983    0.0000 C   0  0  0  0  0  0  0  0  0  0  0  0
    1.7679   -3.1447    0.0000 N   0  0  0  0  0  0  0  0  0  0  0  0
    2.2528   -2.4772    0.0000 C   0  0  0  0  0  0  0  0  0  0  0  0
    3.0733   -2.5635    0.0000 N   0  0  0  0  0  0  0  0  0  0  0  0
    3.4088   -3.3171    0.0000 C   0  0  0  0  0  0  0  0  0  0  0  0
    4.3099   -3.3724    0.0000 S   0  0  0  0  0  0  0  0  0  0  0  0
  5  6  1  0  0  0  0
  6  7  1  0  0  0  0
  7  8  4  0  0  0  0
  8  9  4  0  0  0  0
  9 10  4  0  0  0  0
 10 11  1  0  0  0  0
 11 12  4  0  0  0  0
 12 13  4  0  0  0  0
 13 14  4  0  0  0  0
 14 15  4  0  0  0  0
 15 16  4  0  0  0  0
 11 16  4  0  0  0  0
 16 17  1  0  0  0  0
 17 18  4  0  0  0  0
 18 19  4  0  0  0  0
 19 20  4  0  0  0  0
 20 21  4  0  0  0  0
 21 22  4  0  0  0  0
 17 22  4  0  0  0  0
 10 23  4  0  0  0  0
  7 23  4  0  0  0  0
M  END
>  <CdId>
174

>  <Mol Weight>
414.17

>  <Formula>
C14H16Cl4N4S

>  <Molecule ChEMBL ID>
CHEMBL4165094

>  <Molecule Max Phase>
None

>  <Molecular Weight>
414.19

>  <#RO5 Violations>
0

>  <AlogP>
2.73

>  <Compound Key>
6q

>  <Standard Type>
IC50

>  <Standard Relation>
'>'

>  <Standard Value>
25000.0

>  <Standard Units>
nM

$$$$

  Mrv2114 03112311372D          

 39 43  0  0  1  0            999 V2000
    1.1270   -3.4743    0.0000 O   0  0  0  0  0  0  0  0  0  0  0  0
    1.8414   -3.8868    0.0000 C   0  0  0  0  0  0  0  0  0  0  0  0
    1.8414   -4.7118    0.0000 C   0  0  2  0  0  0  0  0  0  0  0  0
    2.2539   -5.4263    0.0000 C   0  0  0  0  0  0  0  0  0  0  0  0
    1.4289   -5.4263    0.0000 C   0  0  1  0  0  0  0  0  0  0  0  0
    0.7145   -5.8388    0.0000 C   0  0  0  0  0  0  0  0  0  0  0  0
    0.7145   -6.6638    0.0000 C   0  0  0  0  0  0  0  0  0  0  0  0
    0.0000   -7.0763    0.0000 C   0  0  0  0  0  0  0  0  0  0  0  0
   -0.7145   -6.6638    0.0000 C   0  0  0  0  0  0  0  0  0  0  0  0
   -1.4289   -7.0763    0.0000 C   0  0  0  0  0  0  0  0  0  0  0  0
   -2.1434   -7.4888    0.0000 F   0  0  0  0  0  0  0  0  0  0  0  0
   -1.0164   -7.7908    0.0000 F   0  0  0  0  0  0  0  0  0  0  0  0
   -1.8414   -6.3618    0.0000 F   0  0  0  0  0  0  0  0  0  0  0  0
   -0.7145   -5.8388    0.0000 C   0  0  0  0  0  0  0  0  0  0  0  0
    0.0000   -5.4263    0.0000 C   0  0  0  0  0  0  0  0  0  0  0  0
    2.5559   -3.4743    0.0000 N   0  0  0  0  0  0  0  0  0  0  0  0
    2.5559   -2.6493    0.0000 C   0  0  0  0  0  0  0  0  0  0  0  0
    3.2704   -2.2368    0.0000 C   0  0  0  0  0  0  0  0  0  0  0  0
    3.9849   -2.6493    0.0000 N   0  0  0  0  0  0  0  0  0  0  0  0
    4.6993   -2.2368    0.0000 S   0  0  0  0  0  0  0  0  0  0  0  0
    5.1118   -2.9513    0.0000 O   0  0  0  0  0  0  0  0  0  0  0  0
    4.2868   -1.5224    0.0000 O   0  0  0  0  0  0  0  0  0  0  0  0
    5.4138   -1.8243    0.0000 C   0  0  0  0  0  0  0  0  0  0  0  0
    5.4138   -0.9993    0.0000 C   0  0  0  0  0  0  0  0  0  0  0  0
    6.1283   -0.5868    0.0000 C   0  0  0  0  0  0  0  0  0  0  0  0
    6.1283    0.2382    0.0000 C   0  0  0  0  0  0  0  0  0  0  0  0
    5.4608    0.7231    0.0000 N   0  0  0  0  0  0  0  0  0  0  0  0
    5.7158    1.5077    0.0000 N   0  0  0  0  0  0  0  0  0  0  0  0
    6.5408    1.5077    0.0000 C   0  0  0  0  0  0  0  0  0  0  0  0
    6.7957    0.7231    0.0000 N   0  0  0  0  0  0  0  0  0  0  0  0
    6.8427   -0.9993    0.0000 C   0  0  0  0  0  0  0  0  0  0  0  0
    6.8427   -1.8243    0.0000 C   0  0  0  0  0  0  0  0  0  0  0  0
    7.5572   -2.2368    0.0000 C   0  0  0  0  0  0  0  0  0  0  0  0
    8.2717   -2.6493    0.0000 F   0  0  0  0  0  0  0  0  0  0  0  0
    7.1447   -2.9513    0.0000 F   0  0  0  0  0  0  0  0  0  0  0  0
    7.9697   -1.5224    0.0000 F   0  0  0  0  0  0  0  0  0  0  0  0
    6.1283   -2.2368    0.0000 C   0  0  0  0  0  0  0  0  0  0  0  0
    3.9849   -3.4743    0.0000 C   0  0  0  0  0  0  0  0  0  0  0  0
    3.2704   -3.8868    0.0000 C   0  0  0  0  0  0  0  0  0  0  0  0
  1  2  2  0  0  0  0
  3  2  1  6  0  0  0
  3  4  1  0  0  0  0
  5  4  1  0  0  0  0
  3  5  1  0  0  0  0
  5  6  1  1  0  0  0
  6  7  4  0  0  0  0
  7  8  4  0  0  0  0
  8  9  4  0  0  0  0
  9 10  1  0  0  0  0
 10 11  1  0  0  0  0
 10 12  1  0  0  0  0
 10 13  1  0  0  0  0
  9 14  4  0  0  0  0
 14 15  4  0  0  0  0
  6 15  4  0  0  0  0
  2 16  1  0  0  0  0
 16 17  1  0  0  0  0
 17 18  1  0  0  0  0
 18 19  1  0  0  0  0
 19 20  1  0  0  0  0
 20 21  2  0  0  0  0
 20 22  2  0  0  0  0
 20 23  1  0  0  0  0
 23 24  4  0  0  0  0
 24 25  4  0  0  0  0
 25 26  1  0  0  0  0
 26 27  4  0  0  0  0
 27 28  4  0  0  0  0
 28 29  4  0  0  0  0
 29 30  4  0  0  0  0
 26 30  4  0  0  0  0
 25 31  4  0  0  0  0
 31 32  4  0  0  0  0
 32 33  1  0  0  0  0
 33 34  1  0  0  0  0
 33 35  1  0  0  0  0
 33 36  1  0  0  0  0
 32 37  4  0  0  0  0
 23 37  4  0  0  0  0
 19 38  1  0  0  0  0
 38 39  1  0  0  0  0
 16 39  1  0  0  0  0
M  STY  1   1 DAT
M  SAL   1  1  30
M  SDT   1 MRV_IMPLICIT_H                                        
M  SDD   1     0.0000    0.0000    DR    ALL  0       0  
M  SED   1 IMPL_H1
M  END
>  <CdId>
175

>  <Mol Weight>
573.51

>  <Formula>
C24H21F6N5O3S

>  <Molecule ChEMBL ID>
CHEMBL529213

>  <Molecule Max Phase>
None

>  <Molecular Weight>
573.52

>  <#RO5 Violations>
1

>  <AlogP>
4.15

>  <Compound Key>
65

>  <Standard Type>
IC50

>  <Standard Relation>
'='

>  <Standard Value>
15000.0

>  <Standard Units>
nM

$$$$

  Mrv2114 03112311372D          

 24 26  0  0  0  0            999 V2000
    2.7512   -0.8866    0.0000 O   0  0  0  0  0  0  0  0  0  0  0  0
    2.0367   -1.2991    0.0000 C   0  0  0  0  0  0  0  0  0  0  0  0
    1.3222   -0.8866    0.0000 N   0  0  0  0  0  0  0  0  0  0  0  0
    1.3222   -0.0616    0.0000 C   0  0  0  0  0  0  0  0  0  0  0  0
    0.6078    0.3509    0.0000 C   0  0  0  0  0  0  0  0  0  0  0  0
    0.6078    1.1759    0.0000 C   0  0  0  0  0  0  0  0  0  0  0  0
    1.3222    1.5884    0.0000 C   0  0  0  0  0  0  0  0  0  0  0  0
    2.0367    1.1759    0.0000 C   0  0  0  0  0  0  0  0  0  0  0  0
    2.0367    0.3509    0.0000 C   0  0  0  0  0  0  0  0  0  0  0  0
    2.0367   -2.1241    0.0000 C   0  0  0  0  0  0  0  0  0  0  0  0
    2.7041   -2.6090    0.0000 N   0  0  0  0  0  0  0  0  0  0  0  0
    2.4492   -3.3937    0.0000 C   0  0  0  0  0  0  0  0  0  0  0  0
    2.9341   -4.0611    0.0000 C   0  0  0  0  0  0  0  0  0  0  0  0
    2.5986   -4.8148    0.0000 S   0  0  0  0  0  0  0  0  0  0  0  0
    1.8449   -4.4792    0.0000 O   0  0  0  0  0  0  0  0  0  0  0  0
    3.3522   -5.1503    0.0000 O   0  0  0  0  0  0  0  0  0  0  0  0
    2.2630   -5.5684    0.0000 C   0  0  0  0  0  0  0  0  0  0  0  0
    2.7479   -6.2359    0.0000 C   0  0  0  0  0  0  0  0  0  0  0  0
    2.4124   -6.9896    0.0000 C   0  0  0  0  0  0  0  0  0  0  0  0
    1.5919   -7.0758    0.0000 C   0  0  0  0  0  0  0  0  0  0  0  0
    1.1070   -6.4084    0.0000 C   0  0  0  0  0  0  0  0  0  0  0  0
    1.4425   -5.6547    0.0000 C   0  0  0  0  0  0  0  0  0  0  0  0
    1.6242   -3.3937    0.0000 N   0  0  0  0  0  0  0  0  0  0  0  0
    1.3693   -2.6090    0.0000 O   0  0  0  0  0  0  0  0  0  0  0  0
  1  2  2  0  0  0  0
  2  3  1  0  0  0  0
  3  4  1  0  0  0  0
  4  5  1  0  0  0  0
  5  6  1  0  0  0  0
  6  7  1  0  0  0  0
  7  8  1  0  0  0  0
  8  9  1  0  0  0  0
  4  9  1  0  0  0  0
  2 10  1  0  0  0  0
 10 11  4  0  0  0  0
 11 12  4  0  0  0  0
 12 13  1  0  0  0  0
 13 14  1  0  0  0  0
 14 15  2  0  0  0  0
 14 16  2  0  0  0  0
 14 17  1  0  0  0  0
 17 18  4  0  0  0  0
 18 19  4  0  0  0  0
 19 20  4  0  0  0  0
 20 21  4  0  0  0  0
 21 22  4  0  0  0  0
 17 22  4  0  0  0  0
 12 23  4  0  0  0  0
 23 24  4  0  0  0  0
 10 24  4  0  0  0  0
M  END
>  <CdId>
176

>  <Mol Weight>
349.41

>  <Formula>
C16H19N3O4S

>  <Molecule ChEMBL ID>
CHEMBL2069805

>  <Molecule Max Phase>
None

>  <Molecular Weight>
349.41

>  <#RO5 Violations>
0

>  <AlogP>
2.11

>  <Compound Key>
25

>  <Standard Type>
IC50

>  <Standard Relation>
'>'

>  <Standard Value>
20000.0

>  <Standard Units>
nM

$$$$

  Mrv2114 03112311372D          

 26 29  0  0  1  0            999 V2000
   -1.2288    1.7457    0.0000 C   0  0  0  0  0  0  0  0  0  0  0  0
   -0.8932    0.9920    0.0000 C   0  0  0  0  0  0  0  0  0  0  0  0
   -0.0862    0.8205    0.0000 C   0  0  0  0  0  0  0  0  0  0  0  0
    0.0000    0.0000    0.0000 C   0  0  0  0  0  0  0  0  0  0  0  0
    0.7145   -0.4125    0.0000 C   0  0  1  0  0  0  0  0  0  0  0  0
    1.4289    0.0000    0.0000 C   0  0  0  0  0  0  0  0  0  0  0  0
    2.1434   -0.4125    0.0000 C   0  0  1  0  0  0  0  0  0  0  0  0
    2.8579    0.0000    0.0000 C   0  0  1  0  0  0  0  0  0  0  0  0
    2.8579    0.8250    0.0000 C   0  0  0  0  0  0  0  0  0  0  0  0
    3.5724   -0.4125    0.0000 S   0  0  0  0  0  0  0  0  0  0  0  0
    3.5724   -1.2375    0.0000 C   0  0  0  0  0  0  0  0  0  0  0  0
    4.2868   -1.6500    0.0000 N   0  0  0  0  0  0  0  0  0  0  0  0
    2.8579   -1.6500    0.0000 N   0  0  0  0  0  0  0  0  0  0  0  0
    2.1434   -1.2375    0.0000 C   0  0  2  0  0  0  0  0  0  0  0  0
    2.1434   -2.0625    0.0000 C   0  0  0  0  0  0  0  0  0  0  0  0
    2.8579   -2.4750    0.0000 C   0  0  0  0  0  0  0  0  0  0  0  0
    2.8579   -3.3000    0.0000 C   0  0  0  0  0  0  0  0  0  0  0  0
    2.1434   -3.7125    0.0000 C   0  0  0  0  0  0  0  0  0  0  0  0
    2.1434   -4.5375    0.0000 F   0  0  0  0  0  0  0  0  0  0  0  0
    1.4289   -3.3000    0.0000 C   0  0  0  0  0  0  0  0  0  0  0  0
    1.4289   -2.4750    0.0000 C   0  0  0  0  0  0  0  0  0  0  0  0
    0.7145   -2.0625    0.0000 F   0  0  0  0  0  0  0  0  0  0  0  0
    1.4289   -1.6500    0.0000 C   0  0  0  0  0  0  0  0  0  0  0  0
    0.7145   -1.2375    0.0000 O   0  0  0  0  0  0  0  0  0  0  0  0
   -0.7537   -0.3356    0.0000 O   0  0  0  0  0  0  0  0  0  0  0  0
   -1.3057    0.2775    0.0000 N   0  0  0  0  0  0  0  0  0  0  0  0
  1  2  1  0  0  0  0
  2  3  4  0  0  0  0
  3  4  4  0  0  0  0
  5  4  1  1  0  0  0
  5  6  1  0  0  0  0
  7  6  1  1  0  0  0
  7  8  1  0  0  0  0
  8  9  1  1  0  0  0
  8 10  1  0  0  0  0
 10 11  1  0  0  0  0
 11 12  1  0  0  0  0
 11 13  2  0  0  0  0
 14 13  1  0  0  0  0
  7 14  1  0  0  0  0
 14 15  1  6  0  0  0
 15 16  4  0  0  0  0
 16 17  4  0  0  0  0
 17 18  4  0  0  0  0
 18 19  1  0  0  0  0
 18 20  4  0  0  0  0
 20 21  4  0  0  0  0
 15 21  4  0  0  0  0
 21 22  1  0  0  0  0
 14 23  1  0  0  0  0
 23 24  1  0  0  0  0
  5 24  1  0  0  0  0
  4 25  4  0  0  0  0
 25 26  4  0  0  0  0
  2 26  4  0  0  0  0
M  END
>  <CdId>
177

>  <Mol Weight>
379.43

>  <Formula>
C18H19F2N3O2S

>  <Molecule ChEMBL ID>
CHEMBL3422242

>  <Molecule Max Phase>
None

>  <Molecular Weight>
379.43

>  <#RO5 Violations>
0

>  <AlogP>
3.68

>  <Compound Key>
10

>  <Standard Type>
IC50

>  <Standard Relation>
'>'

>  <Standard Value>
30000.0

>  <Standard Units>
nM

$$$$

  Mrv2114 03112311372D          

 24 27  0  0  1  0            999 V2000
    0.0000    0.0000    0.0000 N   0  0  0  0  0  0  0  0  0  0  0  0
    0.7145   -0.4125    0.0000 C   0  0  0  0  0  0  0  0  0  0  0  0
    1.4289    0.0000    0.0000 N   0  0  0  0  0  0  0  0  0  0  0  0
    2.1434   -0.4125    0.0000 C   0  0  1  0  0  0  0  0  0  0  0  0
    2.1434    0.4125    0.0000 C   0  0  0  0  0  0  0  0  0  0  0  0
    1.4289    0.8250    0.0000 C   0  0  0  0  0  0  0  0  0  0  0  0
    1.4289    1.6500    0.0000 C   0  0  0  0  0  0  0  0  0  0  0  0
    2.1434    2.0625    0.0000 C   0  0  0  0  0  0  0  0  0  0  0  0
    2.1434    2.8875    0.0000 F   0  0  0  0  0  0  0  0  0  0  0  0
    2.8579    1.6500    0.0000 C   0  0  0  0  0  0  0  0  0  0  0  0
    2.8579    0.8250    0.0000 C   0  0  0  0  0  0  0  0  0  0  0  0
    3.5724    0.4125    0.0000 F   0  0  0  0  0  0  0  0  0  0  0  0
    2.8579    0.0000    0.0000 C   0  0  0  0  0  0  0  0  0  0  0  0
    3.5724   -0.4125    0.0000 O   0  0  0  0  0  0  0  0  0  0  0  0
    3.5724   -1.2375    0.0000 C   0  0  1  0  0  0  0  0  0  0  0  0
    4.2868   -1.6500    0.0000 C   0  0  0  0  0  0  0  0  0  0  0  0
    5.0405   -1.3144    0.0000 N   0  0  0  0  0  0  0  0  0  0  0  0
    5.5925   -1.9275    0.0000 C   0  0  0  0  0  0  0  0  0  0  0  0
    5.1800   -2.6420    0.0000 C   0  0  0  0  0  0  0  0  0  0  0  0
    4.3731   -2.4705    0.0000 O   0  0  0  0  0  0  0  0  0  0  0  0
    2.8579   -1.6500    0.0000 C   0  0  0  0  0  0  0  0  0  0  0  0
    2.1434   -1.2375    0.0000 C   0  0  1  0  0  0  0  0  0  0  0  0
    1.4289   -1.6500    0.0000 C   0  0  0  0  0  0  0  0  0  0  0  0
    0.7145   -1.2375    0.0000 S   0  0  0  0  0  0  0  0  0  0  0  0
  1  2  1  0  0  0  0
  2  3  2  0  0  0  0
  4  3  1  0  0  0  0
  4  5  1  6  0  0  0
  5  6  4  0  0  0  0
  6  7  4  0  0  0  0
  7  8  4  0  0  0  0
  8  9  1  0  0  0  0
  8 10  4  0  0  0  0
 10 11  4  0  0  0  0
  5 11  4  0  0  0  0
 11 12  1  0  0  0  0
  4 13  1  0  0  0  0
 13 14  1  0  0  0  0
 15 14  1  0  0  0  0
 15 16  1  1  0  0  0
 16 17  4  0  0  0  0
 17 18  4  0  0  0  0
 18 19  4  0  0  0  0
 19 20  4  0  0  0  0
 16 20  4  0  0  0  0
 15 21  1  0  0  0  0
 22 21  1  1  0  0  0
  4 22  1  0  0  0  0
 22 23  1  0  0  0  0
 23 24  1  0  0  0  0
  2 24  1  0  0  0  0
M  END
>  <CdId>
178

>  <Mol Weight>
351.37

>  <Formula>
C16H15F2N3O2S

>  <Molecule ChEMBL ID>
CHEMBL3422235

>  <Molecule Max Phase>
None

>  <Molecular Weight>
351.38

>  <#RO5 Violations>
0

>  <AlogP>
2.99

>  <Compound Key>
2

>  <Standard Type>
IC50

>  <Standard Relation>
'>'

>  <Standard Value>
30000.0

>  <Standard Units>
nM

$$$$

  Mrv2114 03112311372D          

 27 30  0  0  1  0            999 V2000
   -1.2288    1.7457    0.0000 C   0  0  0  0  0  0  0  0  0  0  0  0
   -0.8932    0.9920    0.0000 N   0  0  0  0  0  0  0  0  0  0  0  0
   -0.0862    0.8205    0.0000 C   0  0  0  0  0  0  0  0  0  0  0  0
    0.0000    0.0000    0.0000 C   0  0  0  0  0  0  0  0  0  0  0  0
    0.7145   -0.4125    0.0000 C   0  0  1  0  0  0  0  0  0  0  0  0
    1.4289    0.0000    0.0000 C   0  0  0  0  0  0  0  0  0  0  0  0
    2.1434   -0.4125    0.0000 C   0  0  1  0  0  0  0  0  0  0  0  0
    2.8579    0.0000    0.0000 C   0  0  1  0  0  0  0  0  0  0  0  0
    2.8579    0.8250    0.0000 C   0  0  0  0  0  0  0  0  0  0  0  0
    3.5724    1.2375    0.0000 F   0  0  0  0  0  0  0  0  0  0  0  0
    3.5724   -0.4125    0.0000 S   0  0  0  0  0  0  0  0  0  0  0  0
    3.5724   -1.2375    0.0000 C   0  0  0  0  0  0  0  0  0  0  0  0
    4.2868   -1.6500    0.0000 N   0  0  0  0  0  0  0  0  0  0  0  0
    2.8579   -1.6500    0.0000 N   0  0  0  0  0  0  0  0  0  0  0  0
    2.1434   -1.2375    0.0000 C   0  0  2  0  0  0  0  0  0  0  0  0
    2.1434   -2.0625    0.0000 C   0  0  0  0  0  0  0  0  0  0  0  0
    2.8579   -2.4750    0.0000 C   0  0  0  0  0  0  0  0  0  0  0  0
    2.8579   -3.3000    0.0000 C   0  0  0  0  0  0  0  0  0  0  0  0
    2.1434   -3.7125    0.0000 C   0  0  0  0  0  0  0  0  0  0  0  0
    2.1434   -4.5375    0.0000 F   0  0  0  0  0  0  0  0  0  0  0  0
    1.4289   -3.3000    0.0000 C   0  0  0  0  0  0  0  0  0  0  0  0
    1.4289   -2.4750    0.0000 C   0  0  0  0  0  0  0  0  0  0  0  0
    0.7145   -2.0625    0.0000 F   0  0  0  0  0  0  0  0  0  0  0  0
    1.4289   -1.6500    0.0000 C   0  0  0  0  0  0  0  0  0  0  0  0
    0.7145   -1.2375    0.0000 O   0  0  0  0  0  0  0  0  0  0  0  0
   -0.7537   -0.3356    0.0000 C   0  0  0  0  0  0  0  0  0  0  0  0
   -1.3057    0.2775    0.0000 N   0  0  0  0  0  0  0  0  0  0  0  0
  1  2  1  0  0  0  0
  2  3  4  0  0  0  0
  3  4  4  0  0  0  0
  5  4  1  1  0  0  0
  5  6  1  0  0  0  0
  7  6  1  1  0  0  0
  7  8  1  0  0  0  0
  8  9  1  1  0  0  0
  9 10  1  0  0  0  0
  8 11  1  0  0  0  0
 11 12  1  0  0  0  0
 12 13  1  0  0  0  0
 12 14  2  0  0  0  0
 15 14  1  0  0  0  0
  7 15  1  0  0  0  0
 15 16  1  6  0  0  0
 16 17  4  0  0  0  0
 17 18  4  0  0  0  0
 18 19  4  0  0  0  0
 19 20  1  0  0  0  0
 19 21  4  0  0  0  0
 21 22  4  0  0  0  0
 16 22  4  0  0  0  0
 22 23  1  0  0  0  0
 15 24  1  0  0  0  0
 24 25  1  0  0  0  0
  5 25  1  0  0  0  0
  4 26  4  0  0  0  0
 26 27  4  0  0  0  0
  2 27  4  0  0  0  0
M  END
>  <CdId>
179

>  <Mol Weight>
396.43

>  <Formula>
C18H19F3N4OS

>  <Molecule ChEMBL ID>
CHEMBL3422246

>  <Molecule Max Phase>
None

>  <Molecular Weight>
396.44

>  <#RO5 Violations>
0

>  <AlogP>
3.07

>  <Compound Key>
14

>  <Standard Type>
IC50

>  <Standard Relation>
'>'

>  <Standard Value>
30000.0

>  <Standard Units>
nM

$$$$

  Mrv2114 03112311372D          

 30 32  0  0  0  0            999 V2000
    4.2868    1.6500    0.0000 C   0  0  0  0  0  0  0  0  0  0  0  0
    4.2868    0.8250    0.0000 N   0  0  0  0  0  0  0  0  0  0  0  0
    5.0013    0.4125    0.0000 C   0  0  0  0  0  0  0  0  0  0  0  0
    5.7158    0.8250    0.0000 O   0  0  0  0  0  0  0  0  0  0  0  0
    5.0013   -0.4125    0.0000 C   0  0  0  0  0  0  0  0  0  0  0  0
    5.7158   -0.8250    0.0000 N   0  0  0  0  0  0  0  0  0  0  0  0
    5.7158   -1.6500    0.0000 C   0  0  0  0  0  0  0  0  0  0  0  0
    6.4302   -2.0625    0.0000 C   0  0  0  0  0  0  0  0  0  0  0  0
    7.1447   -1.6500    0.0000 C   0  0  0  0  0  0  0  0  0  0  0  0
    7.8592   -2.0625    0.0000 C   0  0  0  0  0  0  0  0  0  0  0  0
    7.8592   -2.8875    0.0000 C   0  0  0  0  0  0  0  0  0  0  0  0
    8.5737   -3.3000    0.0000 Cl  0  0  0  0  0  0  0  0  0  0  0  0
    7.1447   -3.3000    0.0000 C   0  0  0  0  0  0  0  0  0  0  0  0
    7.1447   -4.1250    0.0000 S   0  0  0  0  0  0  0  0  0  0  0  0
    6.3197   -4.1250    0.0000 O   0  0  0  0  0  0  0  0  0  0  0  0
    7.9697   -4.1250    0.0000 O   0  0  0  0  0  0  0  0  0  0  0  0
    7.1447   -4.9500    0.0000 N   0  0  0  0  0  0  0  0  0  0  0  0
    6.4302   -5.3625    0.0000 C   0  0  0  0  0  0  0  0  0  0  0  0
    6.4302   -6.1875    0.0000 C   0  0  0  0  0  0  0  0  0  0  0  0
    5.7158   -6.6000    0.0000 C   0  0  0  0  0  0  0  0  0  0  0  0
    5.0013   -6.1875    0.0000 C   0  0  0  0  0  0  0  0  0  0  0  0
    5.0013   -5.3625    0.0000 C   0  0  0  0  0  0  0  0  0  0  0  0
    4.2868   -4.9500    0.0000 F   0  0  0  0  0  0  0  0  0  0  0  0
    5.7158   -4.9500    0.0000 C   0  0  0  0  0  0  0  0  0  0  0  0
    5.7158   -4.1250    0.0000 F   0  0  0  0  0  0  0  0  0  0  0  0
    6.4302   -2.8875    0.0000 C   0  0  0  0  0  0  0  0  0  0  0  0
    5.0013   -2.0625    0.0000 C   0  0  0  0  0  0  0  0  0  0  0  0
    4.2868   -1.6500    0.0000 N   0  0  0  0  0  0  0  0  0  0  0  0
    4.2868   -0.8250    0.0000 C   0  0  0  0  0  0  0  0  0  0  0  0
    3.5724   -0.4125    0.0000 N   0  0  0  0  0  0  0  0  0  0  0  0
  1  2  1  0  0  0  0
  2  3  1  0  0  0  0
  3  4  2  0  0  0  0
  3  5  1  0  0  0  0
  5  6  4  0  0  0  0
  6  7  4  0  0  0  0
  7  8  1  0  0  0  0
  8  9  4  0  0  0  0
  9 10  4  0  0  0  0
 10 11  4  0  0  0  0
 11 12  1  0  0  0  0
 11 13  4  0  0  0  0
 13 14  1  0  0  0  0
 14 15  2  0  0  0  0
 14 16  2  0  0  0  0
 14 17  1  0  0  0  0
 17 18  1  0  0  0  0
 18 19  4  0  0  0  0
 19 20  4  0  0  0  0
 20 21  4  0  0  0  0
 21 22  4  0  0  0  0
 22 23  1  0  0  0  0
 22 24  4  0  0  0  0
 18 24  4  0  0  0  0
 24 25  1  0  0  0  0
 13 26  4  0  0  0  0
  8 26  4  0  0  0  0
  7 27  4  0  0  0  0
 27 28  4  0  0  0  0
 28 29  4  0  0  0  0
  5 29  4  0  0  0  0
 29 30  1  0  0  0  0
M  END
>  <CdId>
180

>  <Mol Weight>
453.85

>  <Formula>
C18H14ClF2N5O3S

>  <Molecule ChEMBL ID>
CHEMBL2152252

>  <Molecule Max Phase>
None

>  <Molecular Weight>
453.86

>  <#RO5 Violations>
0

>  <AlogP>
2.82

>  <Compound Key>
31

>  <Standard Type>
IC50

>  <Standard Relation>
'='

>  <Standard Value>
2331.0

>  <Standard Units>
nM

$$$$

  Mrv2114 03112311372D          

 30 32  0  0  1  0            999 V2000
   -0.2822   -4.0752    0.0000 N   0  0  0  0  0  0  0  0  0  0  0  0
   -0.9966   -4.4877    0.0000 C   0  0  0  0  0  0  0  0  0  0  0  0
   -0.9966   -5.3127    0.0000 N   0  0  0  0  0  0  0  0  0  0  0  0
   -1.7111   -5.7252    0.0000 C   0  0  2  0  0  0  0  0  0  0  0  0
   -1.1808   -6.3572    0.0000 C   0  0  0  0  0  0  0  0  0  0  0  0
   -0.3683   -6.2140    0.0000 F   0  0  0  0  0  0  0  0  0  0  0  0
   -2.2414   -6.3572    0.0000 C   0  0  0  0  0  0  0  0  0  0  0  0
   -1.9592   -7.1325    0.0000 C   0  0  0  0  0  0  0  0  0  0  0  0
   -2.4895   -7.7645    0.0000 C   0  0  0  0  0  0  0  0  0  0  0  0
   -2.2074   -8.5397    0.0000 N   0  0  0  0  0  0  0  0  0  0  0  0
   -2.7377   -9.1717    0.0000 C   0  0  0  0  0  0  0  0  0  0  0  0
   -3.5501   -9.0284    0.0000 O   0  0  0  0  0  0  0  0  0  0  0  0
   -2.4555   -9.9469    0.0000 C   0  0  0  0  0  0  0  0  0  0  0  0
   -1.6430  -10.0902    0.0000 C   0  0  0  0  0  0  0  0  0  0  0  0
   -1.3609  -10.8655    0.0000 N   0  0  0  0  0  0  0  0  0  0  0  0
   -1.8912  -11.4974    0.0000 C   0  0  0  0  0  0  0  0  0  0  0  0
   -1.6090  -12.2727    0.0000 O   0  0  0  0  0  0  0  0  0  0  0  0
   -2.1393  -12.9047    0.0000 C   0  0  0  0  0  0  0  0  0  0  0  0
   -1.8571  -13.6799    0.0000 F   0  0  0  0  0  0  0  0  0  0  0  0
   -2.7036  -11.3542    0.0000 C   0  0  0  0  0  0  0  0  0  0  0  0
   -2.9858  -10.5789    0.0000 N   0  0  0  0  0  0  0  0  0  0  0  0
   -3.3020   -7.6212    0.0000 C   0  0  0  0  0  0  0  0  0  0  0  0
   -3.5842   -6.8460    0.0000 C   0  0  0  0  0  0  0  0  0  0  0  0
   -3.0539   -6.2140    0.0000 C   0  0  0  0  0  0  0  0  0  0  0  0
   -3.3360   -5.4387    0.0000 F   0  0  0  0  0  0  0  0  0  0  0  0
   -2.4256   -5.3127    0.0000 C   0  0  0  0  0  0  0  0  0  0  0  0
   -2.4256   -4.4877    0.0000 C   0  0  0  0  0  0  0  0  0  0  0  0
   -1.7111   -4.0752    0.0000 C   0  0  0  0  0  0  0  0  0  0  0  0
   -2.0984   -3.3468    0.0000 F   0  0  0  0  0  0  0  0  0  0  0  0
   -1.3238   -3.3468    0.0000 F   0  0  0  0  0  0  0  0  0  0  0  0
  1  2  1  0  0  0  0
  2  3  2  0  0  0  0
  4  3  1  0  0  0  0
  4  5  1  1  0  0  0
  5  6  1  0  0  0  0
  4  7  1  6  0  0  0
  7  8  4  0  0  0  0
  8  9  4  0  0  0  0
  9 10  1  0  0  0  0
 10 11  1  0  0  0  0
 11 12  2  0  0  0  0
 11 13  1  0  0  0  0
 13 14  4  0  0  0  0
 14 15  4  0  0  0  0
 15 16  4  0  0  0  0
 16 17  1  0  0  0  0
 17 18  1  0  0  0  0
 18 19  1  0  0  0  0
 16 20  4  0  0  0  0
 20 21  4  0  0  0  0
 13 21  4  0  0  0  0
  9 22  4  0  0  0  0
 22 23  4  0  0  0  0
 23 24  4  0  0  0  0
  7 24  4  0  0  0  0
 24 25  1  0  0  0  0
  4 26  1  0  0  0  0
 26 27  1  0  0  0  0
 27 28  1  0  0  0  0
  2 28  1  0  0  0  0
 28 29  1  0  0  0  0
 28 30  1  0  0  0  0
M  END
>  <CdId>
181

>  <Mol Weight>
429.351

>  <Formula>
C18H16F5N5O2

>  <Molecule ChEMBL ID>
CHEMBL4643511

>  <Molecule Max Phase>
None

>  <Molecular Weight>
429.35

>  <#RO5 Violations>
0

>  <AlogP>
3.12

>  <Compound Key>
23

>  <Standard Type>
IC50

>  <Standard Relation>
'>'

>  <Standard Value>
10000.0

>  <Standard Units>
nM

$$$$

  Mrv2114 03112311372D          

 30 33  0  0  0  0            999 V2000
   -0.4752   -3.9264    0.0000 C   0  0  0  0  0  0  0  0  0  0  0  0
   -0.2203   -4.7111    0.0000 C   0  0  0  0  0  0  0  0  0  0  0  0
   -0.7723   -5.3242    0.0000 C   0  0  0  0  0  0  0  0  0  0  0  0
    0.5867   -4.8826    0.0000 N   0  0  0  0  0  0  0  0  0  0  0  0
    0.8416   -5.6672    0.0000 C   0  0  0  0  0  0  0  0  0  0  0  0
    0.2896   -6.2803    0.0000 C   0  0  0  0  0  0  0  0  0  0  0  0
    0.5445   -7.0649    0.0000 O   0  0  0  0  0  0  0  0  0  0  0  0
    1.1387   -4.2695    0.0000 C   0  0  0  0  0  0  0  0  0  0  0  0
    0.8838   -3.4849    0.0000 C   0  0  0  0  0  0  0  0  0  0  0  0
    0.0992   -3.2299    0.0000 C   0  0  0  0  0  0  0  0  0  0  0  0
    0.0992   -2.4049    0.0000 S   0  0  0  0  0  0  0  0  0  0  0  0
    0.8838   -2.1500    0.0000 C   0  0  0  0  0  0  0  0  0  0  0  0
    1.1387   -1.3654    0.0000 C   0  0  0  0  0  0  0  0  0  0  0  0
    0.6538   -0.6979    0.0000 C   0  0  0  0  0  0  0  0  0  0  0  0
    1.1387   -0.0305    0.0000 N   0  0  0  0  0  0  0  0  0  0  0  0
    0.8838    0.7541    0.0000 C   0  0  0  0  0  0  0  0  0  0  0  0
    1.4358    1.3672    0.0000 C   0  0  0  0  0  0  0  0  0  0  0  0
    1.1809    2.1518    0.0000 C   0  0  0  0  0  0  0  0  0  0  0  0
    1.7329    2.7649    0.0000 C   0  0  0  0  0  0  0  0  0  0  0  0
    2.5399    2.5934    0.0000 O   0  0  0  0  0  0  0  0  0  0  0  0
    2.7948    1.8088    0.0000 C   0  0  0  0  0  0  0  0  0  0  0  0
    2.2428    1.1957    0.0000 C   0  0  0  0  0  0  0  0  0  0  0  0
    1.9233   -0.2854    0.0000 C   0  0  0  0  0  0  0  0  0  0  0  0
    2.6378    0.1271    0.0000 C   0  0  0  0  0  0  0  0  0  0  0  0
    2.6378    0.9521    0.0000 Cl  0  0  0  0  0  0  0  0  0  0  0  0
    3.3523   -0.2854    0.0000 C   0  0  0  0  0  0  0  0  0  0  0  0
    3.3523   -1.1104    0.0000 C   0  0  0  0  0  0  0  0  0  0  0  0
    2.6378   -1.5229    0.0000 C   0  0  0  0  0  0  0  0  0  0  0  0
    1.9233   -1.1104    0.0000 C   0  0  0  0  0  0  0  0  0  0  0  0
    1.3687   -2.8174    0.0000 N   0  0  0  0  0  0  0  0  0  0  0  0
  1  2  1  0  0  0  0
  2  3  1  0  0  0  0
  2  4  1  0  0  0  0
  4  5  1  0  0  0  0
  5  6  1  0  0  0  0
  6  7  1  0  0  0  0
  4  8  1  0  0  0  0
  8  9  1  0  0  0  0
  9 10  4  0  0  0  0
 10 11  4  0  0  0  0
 11 12  4  0  0  0  0
 12 13  1  0  0  0  0
 13 14  4  0  0  0  0
 14 15  4  0  0  0  0
 15 16  1  0  0  0  0
 16 17  1  0  0  0  0
 17 18  1  0  0  0  0
 18 19  1  0  0  0  0
 19 20  1  0  0  0  0
 20 21  1  0  0  0  0
 21 22  1  0  0  0  0
 17 22  1  0  0  0  0
 15 23  4  0  0  0  0
 23 24  4  0  0  0  0
 24 25  1  0  0  0  0
 24 26  4  0  0  0  0
 26 27  4  0  0  0  0
 27 28  4  0  0  0  0
 28 29  4  0  0  0  0
 13 29  4  0  0  0  0
 23 29  4  0  0  0  0
 12 30  4  0  0  0  0
  9 30  4  0  0  0  0
M  END
>  <CdId>
182

>  <Mol Weight>
448.02

>  <Formula>
C23H30ClN3O2S

>  <Molecule ChEMBL ID>
CHEMBL1762808

>  <Molecule Max Phase>
None

>  <Molecular Weight>
448.03

>  <#RO5 Violations>
1

>  <AlogP>
5.05

>  <Compound Key>
38

>  <Standard Type>
IC50

>  <Standard Relation>
'='

>  <Standard Value>
3300.0

>  <Standard Units>
nM

$$$$

  Mrv2114 03112311372D          

 28 30  0  0  0  0            999 V2000
    4.1801   -1.7116    0.0000 O   0  0  0  0  0  0  0  0  0  0  0  0
    4.8946   -1.2991    0.0000 C   0  0  0  0  0  0  0  0  0  0  0  0
    5.6091   -1.7116    0.0000 C   0  0  0  0  0  0  0  0  0  0  0  0
    5.6091   -2.5366    0.0000 N   0  0  0  0  0  0  0  0  0  0  0  0
    6.2765   -3.0215    0.0000 C   0  0  0  0  0  0  0  0  0  0  0  0
    6.0216   -3.8062    0.0000 N   0  0  0  0  0  0  0  0  0  0  0  0
    5.1966   -3.8062    0.0000 C   0  0  0  0  0  0  0  0  0  0  0  0
    4.7116   -4.4736    0.0000 N   0  3  0  0  0  0  0  0  0  0  0  0
    5.0472   -5.2273    0.0000 O   0  0  0  0  0  0  0  0  0  0  0  0
    3.8912   -4.3874    0.0000 O   0  5  0  0  0  0  0  0  0  0  0  0
    4.9416   -3.0215    0.0000 N   0  0  0  0  0  0  0  0  0  0  0  0
    4.8946   -0.4741    0.0000 N   0  0  0  0  0  0  0  0  0  0  0  0
    4.1801   -0.0616    0.0000 C   0  0  0  0  0  0  0  0  0  0  0  0
    4.1801    0.7634    0.0000 C   0  0  0  0  0  0  0  0  0  0  0  0
    4.8946    1.1759    0.0000 N   0  0  0  0  0  0  0  0  0  0  0  0
    4.8946    2.0009    0.0000 C   0  0  0  0  0  0  0  0  0  0  0  0
    5.6091    2.4134    0.0000 C   0  0  0  0  0  0  0  0  0  0  0  0
    5.6091    3.2384    0.0000 C   0  0  0  0  0  0  0  0  0  0  0  0
    6.3235    3.6509    0.0000 C   0  0  0  0  0  0  0  0  0  0  0  0
    7.0380    3.2384    0.0000 C   0  0  0  0  0  0  0  0  0  0  0  0
    7.7525    3.6509    0.0000 C   0  0  0  0  0  0  0  0  0  0  0  0
    8.4669    4.0634    0.0000 F   0  0  0  0  0  0  0  0  0  0  0  0
    8.1650    2.9364    0.0000 F   0  0  0  0  0  0  0  0  0  0  0  0
    7.3400    4.3654    0.0000 F   0  0  0  0  0  0  0  0  0  0  0  0
    7.0380    2.4134    0.0000 C   0  0  0  0  0  0  0  0  0  0  0  0
    6.3235    2.0009    0.0000 C   0  0  0  0  0  0  0  0  0  0  0  0
    5.6091    0.7634    0.0000 C   0  0  0  0  0  0  0  0  0  0  0  0
    5.6091   -0.0616    0.0000 C   0  0  0  0  0  0  0  0  0  0  0  0
  1  2  2  0  0  0  0
  2  3  1  0  0  0  0
  3  4  1  0  0  0  0
  4  5  4  0  0  0  0
  5  6  4  0  0  0  0
  6  7  4  0  0  0  0
  7  8  1  0  0  0  0
  8  9  2  0  0  0  0
  8 10  1  0  0  0  0
  7 11  4  0  0  0  0
  4 11  4  0  0  0  0
  2 12  1  0  0  0  0
 12 13  1  0  0  0  0
 13 14  1  0  0  0  0
 14 15  1  0  0  0  0
 15 16  1  0  0  0  0
 16 17  1  0  0  0  0
 17 18  4  0  0  0  0
 18 19  4  0  0  0  0
 19 20  4  0  0  0  0
 20 21  1  0  0  0  0
 21 22  1  0  0  0  0
 21 23  1  0  0  0  0
 21 24  1  0  0  0  0
 20 25  4  0  0  0  0
 25 26  4  0  0  0  0
 17 26  4  0  0  0  0
 15 27  1  0  0  0  0
 27 28  1  0  0  0  0
 12 28  1  0  0  0  0
M  CHG  2   8   1  10  -1
M  END
>  <CdId>
183

>  <Mol Weight>
398.346

>  <Formula>
C16H17F3N6O3

>  <Molecule ChEMBL ID>
CHEMBL3633320

>  <Molecule Max Phase>
None

>  <Molecular Weight>
398.35

>  <#RO5 Violations>
0

>  <AlogP>
1.55

>  <Compound Key>
11

>  <Standard Type>
IC50

>  <Standard Relation>
'>'

>  <Standard Value>
20000.0

>  <Standard Units>
nM

$$$$

  Mrv2114 03112311372D          

 28 30  0  0  0  0            999 V2000
    3.5724    1.2375    0.0000 C   0  0  0  0  0  0  0  0  0  0  0  0
    3.5724    0.4125    0.0000 C   0  0  0  0  0  0  0  0  0  0  0  0
    4.2868    0.0000    0.0000 C   0  0  0  0  0  0  0  0  0  0  0  0
    5.0013    0.4125    0.0000 C   0  0  0  0  0  0  0  0  0  0  0  0
    5.7158    0.0000    0.0000 N   0  0  0  0  0  0  0  0  0  0  0  0
    6.4302    0.4125    0.0000 C   0  0  0  0  0  0  0  0  0  0  0  0
    6.4302    1.2375    0.0000 N   0  0  0  0  0  0  0  0  0  0  0  0
    7.1447    1.6500    0.0000 C   0  0  0  0  0  0  0  0  0  0  0  0
    7.1447    2.4750    0.0000 N   0  0  0  0  0  0  0  0  0  0  0  0
    7.8592    1.2375    0.0000 N   0  0  0  0  0  0  0  0  0  0  0  0
    7.8592    0.4125    0.0000 C   0  0  0  0  0  0  0  0  0  0  0  0
    8.5737    0.0000    0.0000 C   0  0  0  0  0  0  0  0  0  0  0  0
    8.5737   -0.8250    0.0000 C   0  0  0  0  0  0  0  0  0  0  0  0
    7.8592   -1.2375    0.0000 C   0  0  0  0  0  0  0  0  0  0  0  0
    7.1447   -0.8250    0.0000 C   0  0  0  0  0  0  0  0  0  0  0  0
    6.4302   -1.2375    0.0000 O   0  0  0  0  0  0  0  0  0  0  0  0
    5.7158   -0.8250    0.0000 C   0  0  0  0  0  0  0  0  0  0  0  0
    5.0013   -1.2375    0.0000 C   0  0  0  0  0  0  0  0  0  0  0  0
    4.2868   -0.8250    0.0000 N   0  0  0  0  0  0  0  0  0  0  0  0
    3.5724   -1.2375    0.0000 C   0  0  0  0  0  0  0  0  0  0  0  0
    3.5724   -2.0625    0.0000 C   0  0  0  0  0  0  0  0  0  0  0  0
    4.2868   -2.4750    0.0000 C   0  0  0  0  0  0  0  0  0  0  0  0
    4.2868   -3.3000    0.0000 O   0  0  0  0  0  0  0  0  0  0  0  0
    5.0013   -3.7125    0.0000 C   0  0  0  0  0  0  0  0  0  0  0  0
    5.0013   -2.0625    0.0000 C   0  0  0  0  0  0  0  0  0  0  0  0
    5.7158   -2.4750    0.0000 O   0  0  0  0  0  0  0  0  0  0  0  0
    5.7158   -3.3000    0.0000 C   0  0  0  0  0  0  0  0  0  0  0  0
    7.1447    0.0000    0.0000 C   0  0  0  0  0  0  0  0  0  0  0  0
  1  2  1  0  0  0  0
  2  3  1  0  0  0  0
  3  4  1  0  0  0  0
  4  5  1  0  0  0  0
  5  6  1  0  0  0  0
  6  7  4  0  0  0  0
  7  8  4  0  0  0  0
  8  9  1  0  0  0  0
  8 10  4  0  0  0  0
 10 11  4  0  0  0  0
 11 12  4  0  0  0  0
 12 13  4  0  0  0  0
 13 14  4  0  0  0  0
 14 15  4  0  0  0  0
 15 16  1  0  0  0  0
 16 17  1  0  0  0  0
 17 18  1  0  0  0  0
 18 19  4  0  0  0  0
 19 20  4  0  0  0  0
 20 21  4  0  0  0  0
 21 22  4  0  0  0  0
 22 23  1  0  0  0  0
 23 24  1  0  0  0  0
 22 25  4  0  0  0  0
 18 25  4  0  0  0  0
 25 26  1  0  0  0  0
 26 27  1  0  0  0  0
 15 28  4  0  0  0  0
  6 28  4  0  0  0  0
 11 28  4  0  0  0  0
M  END
>  <CdId>
184

>  <Mol Weight>
383.452

>  <Formula>
C20H25N5O3

>  <Molecule ChEMBL ID>
CHEMBL4205861

>  <Molecule Max Phase>
None

>  <Molecular Weight>
383.45

>  <#RO5 Violations>
0

>  <AlogP>
3.42

>  <Compound Key>
41

>  <Standard Type>
IC50

>  <Standard Relation>
'>'

>  <Standard Value>
10000.0

>  <Standard Units>
nM

$$$$

  Mrv2114 03112311372D          

 31 34  0  0  1  0            999 V2000
   -2.1349   -0.6674    0.0000 C   0  0  0  0  0  0  0  0  0  0  0  0
   -1.3099   -0.6674    0.0000 S   0  0  0  0  0  0  0  0  0  0  0  0
   -1.3099   -1.4924    0.0000 O   0  0  0  0  0  0  0  0  0  0  0  0
   -1.3099    0.1576    0.0000 O   0  0  0  0  0  0  0  0  0  0  0  0
   -0.4849   -0.6674    0.0000 N   0  0  0  0  0  0  0  0  0  0  0  0
   -0.0000   -1.3349    0.0000 C   0  0  0  0  0  0  0  0  0  0  0  0
    0.7846   -1.0799    0.0000 C   0  0  0  0  0  0  0  0  0  0  0  0
    0.7846   -0.2549    0.0000 C   0  0  0  0  0  0  0  0  0  0  0  0
   -0.0000    0.0000    0.0000 N   0  0  0  0  0  0  0  0  0  0  0  0
    1.5692    0.0000    0.0000 C   0  0  0  0  0  0  0  0  0  0  0  0
    2.0542   -0.6674    0.0000 N   0  0  0  0  0  0  0  0  0  0  0  0
    2.8792   -0.6674    0.0000 C   0  0  2  0  0  0  0  0  0  0  0  0
    3.2917    0.0470    0.0000 C   0  0  0  0  0  0  0  0  0  0  0  0
    4.1167    0.0470    0.0000 C   0  0  2  0  0  0  0  0  0  0  0  0
    4.5292    0.7615    0.0000 N   0  0  0  0  0  0  0  0  0  0  0  0
    4.5292   -0.6674    0.0000 C   0  0  1  0  0  0  0  0  0  0  0  0
    5.3542   -0.6674    0.0000 C   0  0  0  0  0  0  0  0  0  0  0  0
    5.7667    0.0470    0.0000 C   0  0  0  0  0  0  0  0  0  0  0  0
    6.5917    0.0470    0.0000 C   0  0  0  0  0  0  0  0  0  0  0  0
    7.0042    0.7615    0.0000 F   0  0  0  0  0  0  0  0  0  0  0  0
    7.0042   -0.6674    0.0000 C   0  0  0  0  0  0  0  0  0  0  0  0
    6.5917   -1.3819    0.0000 C   0  0  0  0  0  0  0  0  0  0  0  0
    5.7667   -1.3819    0.0000 C   0  0  0  0  0  0  0  0  0  0  0  0
    5.3542   -2.0964    0.0000 F   0  0  0  0  0  0  0  0  0  0  0  0
    4.1167   -1.3819    0.0000 O   0  0  0  0  0  0  0  0  0  0  0  0
    3.2917   -1.3819    0.0000 C   0  0  2  0  0  0  0  0  0  0  0  0
    2.8792   -2.0964    0.0000 C   0  0  0  0  0  0  0  0  0  0  0  0
    2.4667   -2.8109    0.0000 F   0  0  0  0  0  0  0  0  0  0  0  0
    2.1647   -1.6839    0.0000 F   0  0  0  0  0  0  0  0  0  0  0  0
    3.5936   -2.5089    0.0000 F   0  0  0  0  0  0  0  0  0  0  0  0
    1.5692   -1.3349    0.0000 C   0  0  0  0  0  0  0  0  0  0  0  0
  1  2  1  0  0  0  0
  2  3  2  0  0  0  0
  2  4  2  0  0  0  0
  2  5  1  0  0  0  0
  5  6  4  0  0  0  0
  6  7  4  0  0  0  0
  7  8  4  0  0  0  0
  8  9  4  0  0  0  0
  5  9  4  0  0  0  0
  8 10  1  0  0  0  0
 10 11  1  0  0  0  0
 12 11  1  6  0  0  0
 12 13  1  0  0  0  0
 14 13  1  0  0  0  0
 14 15  1  6  0  0  0
 14 16  1  0  0  0  0
 16 17  1  1  0  0  0
 17 18  4  0  0  0  0
 18 19  4  0  0  0  0
 19 20  1  0  0  0  0
 19 21  4  0  0  0  0
 21 22  4  0  0  0  0
 22 23  4  0  0  0  0
 17 23  4  0  0  0  0
 23 24  1  0  0  0  0
 16 25  1  0  0  0  0
 26 25  1  0  0  0  0
 12 26  1  0  0  0  0
 26 27  1  6  0  0  0
 27 28  1  0  0  0  0
 27 29  1  0  0  0  0
 27 30  1  0  0  0  0
 11 31  1  0  0  0  0
  7 31  1  0  0  0  0
M  END
>  <CdId>
185

>  <Mol Weight>
466.43

>  <Formula>
C18H19F5N4O3S

>  <Molecule ChEMBL ID>
CHEMBL4646510

>  <Molecule Name>
COFROGLIPTIN

>  <Molecule Max Phase>
-1

>  <Molecular Weight>
466.43

>  <#RO5 Violations>
0

>  <AlogP>
2.07

>  <Compound Key>
2; Haisco HSK7653

>  <Standard Type>
IC50

>  <Standard Relation>
'='

>  <Standard Value>
76300.0

>  <Standard Units>
nM

$$$$

  Mrv2114 03112311372D          

 24 26  0  0  0  0            999 V2000
    2.8579    0.0000    0.0000 C   0  0  0  0  0  0  0  0  0  0  0  0
    3.5724    0.4125    0.0000 C   0  0  0  0  0  0  0  0  0  0  0  0
    4.2868    0.0000    0.0000 C   0  0  0  0  0  0  0  0  0  0  0  0
    5.0013    0.4125    0.0000 C   0  0  0  0  0  0  0  0  0  0  0  0
    5.7158    0.0000    0.0000 N   0  0  0  0  0  0  0  0  0  0  0  0
    6.4302    0.4125    0.0000 C   0  0  0  0  0  0  0  0  0  0  0  0
    6.4302    1.2375    0.0000 N   0  0  0  0  0  0  0  0  0  0  0  0
    7.1447    1.6500    0.0000 C   0  0  0  0  0  0  0  0  0  0  0  0
    7.1447    2.4750    0.0000 N   0  0  0  0  0  0  0  0  0  0  0  0
    7.8592    1.2375    0.0000 N   0  0  0  0  0  0  0  0  0  0  0  0
    7.8592    0.4125    0.0000 C   0  0  0  0  0  0  0  0  0  0  0  0
    8.5737    0.0000    0.0000 C   0  0  0  0  0  0  0  0  0  0  0  0
    8.5737   -0.8250    0.0000 C   0  0  0  0  0  0  0  0  0  0  0  0
    7.8592   -1.2375    0.0000 C   0  0  0  0  0  0  0  0  0  0  0  0
    7.1447   -0.8250    0.0000 C   0  0  0  0  0  0  0  0  0  0  0  0
    6.4302   -1.2375    0.0000 O   0  0  0  0  0  0  0  0  0  0  0  0
    6.4302   -2.0625    0.0000 C   0  0  0  0  0  0  0  0  0  0  0  0
    7.1447   -2.4750    0.0000 C   0  0  0  0  0  0  0  0  0  0  0  0
    7.8592   -2.0625    0.0000 C   0  0  0  0  0  0  0  0  0  0  0  0
    8.5737   -2.4750    0.0000 C   0  0  0  0  0  0  0  0  0  0  0  0
    8.5737   -3.3000    0.0000 C   0  0  0  0  0  0  0  0  0  0  0  0
    7.8592   -3.7125    0.0000 N   0  0  0  0  0  0  0  0  0  0  0  0
    7.1447   -3.3000    0.0000 C   0  0  0  0  0  0  0  0  0  0  0  0
    7.1447    0.0000    0.0000 C   0  0  0  0  0  0  0  0  0  0  0  0
  1  2  1  0  0  0  0
  2  3  1  0  0  0  0
  3  4  1  0  0  0  0
  4  5  1  0  0  0  0
  5  6  1  0  0  0  0
  6  7  4  0  0  0  0
  7  8  4  0  0  0  0
  8  9  1  0  0  0  0
  8 10  4  0  0  0  0
 10 11  4  0  0  0  0
 11 12  4  0  0  0  0
 12 13  4  0  0  0  0
 13 14  4  0  0  0  0
 14 15  4  0  0  0  0
 15 16  1  0  0  0  0
 16 17  1  0  0  0  0
 17 18  1  0  0  0  0
 18 19  4  0  0  0  0
 19 20  4  0  0  0  0
 20 21  4  0  0  0  0
 21 22  4  0  0  0  0
 22 23  4  0  0  0  0
 18 23  4  0  0  0  0
 15 24  4  0  0  0  0
  6 24  4  0  0  0  0
 11 24  4  0  0  0  0
M  END
>  <CdId>
186

>  <Mol Weight>
323.4

>  <Formula>
C18H21N5O

>  <Molecule ChEMBL ID>
CHEMBL4206363

>  <Molecule Max Phase>
None

>  <Molecular Weight>
323.4

>  <#RO5 Violations>
0

>  <AlogP>
3.4

>  <Compound Key>
40

>  <Standard Type>
IC50

>  <Standard Relation>
'>'

>  <Standard Value>
10000.0

>  <Standard Units>
nM

$$$$

  Mrv2114 03112311372D          

 38 42  0  0  0  0            999 V2000
    4.1960   -5.8286    0.0000 C   0  0  0  0  0  0  0  0  0  0  0  0
    3.3890   -6.0001    0.0000 C   0  0  0  0  0  0  0  0  0  0  0  0
    3.1341   -6.7847    0.0000 O   0  0  0  0  0  0  0  0  0  0  0  0
    2.8370   -5.3870    0.0000 N   0  0  0  0  0  0  0  0  0  0  0  0
    2.0300   -5.5585    0.0000 C   0  0  0  0  0  0  0  0  0  0  0  0
    1.4780   -4.9454    0.0000 C   0  0  0  0  0  0  0  0  0  0  0  0
    1.7329   -4.1608    0.0000 N   0  0  0  0  0  0  0  0  0  0  0  0
    1.1809   -3.5477    0.0000 C   0  0  0  0  0  0  0  0  0  0  0  0
    0.3739   -3.7192    0.0000 C   0  0  0  0  0  0  0  0  0  0  0  0
   -0.1781   -3.1062    0.0000 C   0  0  0  0  0  0  0  0  0  0  0  0
    0.0768   -2.3215    0.0000 C   0  0  0  0  0  0  0  0  0  0  0  0
    0.8838   -2.1500    0.0000 C   0  0  0  0  0  0  0  0  0  0  0  0
    1.1387   -1.3654    0.0000 C   0  0  0  0  0  0  0  0  0  0  0  0
    0.6538   -0.6979    0.0000 C   0  0  0  0  0  0  0  0  0  0  0  0
    1.1387   -0.0305    0.0000 C   0  0  0  0  0  0  0  0  0  0  0  0
    0.8838    0.7541    0.0000 C   0  0  0  0  0  0  0  0  0  0  0  0
    0.0992    1.0091    0.0000 C   0  0  0  0  0  0  0  0  0  0  0  0
    0.0992    1.8341    0.0000 C   0  0  0  0  0  0  0  0  0  0  0  0
    0.8838    2.0890    0.0000 N   0  0  0  0  0  0  0  0  0  0  0  0
    1.3687    1.4216    0.0000 N   0  0  0  0  0  0  0  0  0  0  0  0
    2.1937    1.4216    0.0000 C   0  0  0  0  0  0  0  0  0  0  0  0
    2.6062    2.1360    0.0000 C   0  0  0  0  0  0  0  0  0  0  0  0
    3.0187    2.8505    0.0000 F   0  0  0  0  0  0  0  0  0  0  0  0
    3.3207    1.7235    0.0000 F   0  0  0  0  0  0  0  0  0  0  0  0
    1.8917    2.5485    0.0000 F   0  0  0  0  0  0  0  0  0  0  0  0
    1.9233   -0.2854    0.0000 C   0  0  0  0  0  0  0  0  0  0  0  0
    2.6378    0.1271    0.0000 C   0  0  0  0  0  0  0  0  0  0  0  0
    2.6378    0.9521    0.0000 N   0  0  0  0  0  0  0  0  0  0  0  0
    3.3523   -0.2854    0.0000 N   0  0  0  0  0  0  0  0  0  0  0  0
    3.3523   -1.1104    0.0000 C   0  0  0  0  0  0  0  0  0  0  0  0
    2.6378   -1.5229    0.0000 N   0  0  0  0  0  0  0  0  0  0  0  0
    1.9233   -1.1104    0.0000 N   0  0  0  0  0  0  0  0  0  0  0  0
    1.4358   -2.7631    0.0000 C   0  0  0  0  0  0  0  0  0  0  0  0
    2.5399   -3.9893    0.0000 C   0  0  0  0  0  0  0  0  0  0  0  0
    2.7948   -3.2047    0.0000 O   0  0  0  0  0  0  0  0  0  0  0  0
    3.0919   -4.6024    0.0000 C   0  0  0  0  0  0  0  0  0  0  0  0
    3.7239   -4.0721    0.0000 C   0  0  0  0  0  0  0  0  0  0  0  0
    3.8850   -4.8298    0.0000 C   0  0  0  0  0  0  0  0  0  0  0  0
  1  2  1  0  0  0  0
  2  3  2  0  0  0  0
  2  4  1  0  0  0  0
  4  5  1  0  0  0  0
  5  6  1  0  0  0  0
  6  7  1  0  0  0  0
  7  8  1  0  0  0  0
  8  9  4  0  0  0  0
  9 10  4  0  0  0  0
 10 11  4  0  0  0  0
 11 12  4  0  0  0  0
 12 13  1  0  0  0  0
 13 14  4  0  0  0  0
 14 15  4  0  0  0  0
 15 16  1  0  0  0  0
 16 17  4  0  0  0  0
 17 18  4  0  0  0  0
 18 19  4  0  0  0  0
 19 20  4  0  0  0  0
 16 20  4  0  0  0  0
 20 21  1  0  0  0  0
 21 22  1  0  0  0  0
 22 23  1  0  0  0  0
 22 24  1  0  0  0  0
 22 25  1  0  0  0  0
 15 26  4  0  0  0  0
 26 27  4  0  0  0  0
 27 28  1  0  0  0  0
 27 29  4  0  0  0  0
 29 30  4  0  0  0  0
 30 31  4  0  0  0  0
 31 32  4  0  0  0  0
 13 32  4  0  0  0  0
 26 32  4  0  0  0  0
 12 33  4  0  0  0  0
  8 33  4  0  0  0  0
  7 34  1  0  0  0  0
 34 35  2  0  0  0  0
 34 36  1  0  0  0  0
  4 36  1  0  0  0  0
 36 37  1  0  0  0  0
 36 38  1  0  0  0  0
M  END
>  <CdId>
187

>  <Mol Weight>
526.524

>  <Formula>
C25H25F3N8O2

>  <Molecule ChEMBL ID>
CHEMBL4059848

>  <Molecule Max Phase>
None

>  <Molecular Weight>
526.52

>  <#RO5 Violations>
1

>  <AlogP>
3.38

>  <Compound Key>
22

>  <Standard Type>
IC50

>  <Standard Relation>
'>'

>  <Standard Value>
20000.0

>  <Standard Units>
nM

$$$$

  Mrv2114 03112311372D          

 29 32  0  0  1  0            999 V2000
    0.7145   -1.2375    0.0000 C   0  0  0  0  0  0  0  0  0  0  0  0
    0.7145   -0.4125    0.0000 C   0  0  2  0  0  0  0  0  0  0  0  0
    0.0000    0.0000    0.0000 C   0  0  0  0  0  0  0  0  0  0  0  0
   -0.7846   -0.2549    0.0000 N   0  0  0  0  0  0  0  0  0  0  0  0
   -1.2695    0.4125    0.0000 N   0  0  0  0  0  0  0  0  0  0  0  0
   -0.7846    1.0799    0.0000 N   0  0  0  0  0  0  0  0  0  0  0  0
   -1.0396    1.8646    0.0000 C   0  0  0  0  0  0  0  0  0  0  0  0
   -1.8465    2.0361    0.0000 N   0  0  0  0  0  0  0  0  0  0  0  0
   -2.1015    2.8207    0.0000 C   0  0  0  0  0  0  0  0  0  0  0  0
   -1.5494    3.4338    0.0000 C   0  0  0  0  0  0  0  0  0  0  0  0
   -0.7425    3.2623    0.0000 C   0  0  0  0  0  0  0  0  0  0  0  0
   -0.4875    2.4777    0.0000 N   0  0  0  0  0  0  0  0  0  0  0  0
    0.0000    0.8250    0.0000 C   0  0  0  0  0  0  0  0  0  0  0  0
    0.7145    1.2375    0.0000 C   0  0  0  0  0  0  0  0  0  0  0  0
    1.4289    0.8250    0.0000 C   0  0  0  0  0  0  0  0  0  0  0  0
    1.4289    0.0000    0.0000 N   0  0  0  0  0  0  0  0  0  0  0  0
    2.1434   -0.4125    0.0000 C   0  0  0  0  0  0  0  0  0  0  0  0
    2.1434   -1.2375    0.0000 O   0  0  0  0  0  0  0  0  0  0  0  0
    2.8579    0.0000    0.0000 C   0  0  0  0  0  0  0  0  0  0  0  0
    2.8579    0.8250    0.0000 C   0  0  0  0  0  0  0  0  0  0  0  0
    3.5724    1.2375    0.0000 C   0  0  0  0  0  0  0  0  0  0  0  0
    4.2868    0.8250    0.0000 C   0  0  0  0  0  0  0  0  0  0  0  0
    4.2868    0.0000    0.0000 C   0  0  0  0  0  0  0  0  0  0  0  0
    5.0013   -0.4125    0.0000 C   0  0  0  0  0  0  0  0  0  0  0  0
    5.7158   -0.8250    0.0000 F   0  0  0  0  0  0  0  0  0  0  0  0
    4.5888   -1.1270    0.0000 F   0  0  0  0  0  0  0  0  0  0  0  0
    5.4138    0.3020    0.0000 F   0  0  0  0  0  0  0  0  0  0  0  0
    3.5724   -0.4125    0.0000 C   0  0  0  0  0  0  0  0  0  0  0  0
    3.5724   -1.2375    0.0000 Cl  0  0  0  0  0  0  0  0  0  0  0  0
  2  1  1  6  0  0  0
  2  3  1  0  0  0  0
  3  4  4  0  0  0  0
  4  5  4  0  0  0  0
  5  6  4  0  0  0  0
  6  7  1  0  0  0  0
  7  8  4  0  0  0  0
  8  9  4  0  0  0  0
  9 10  4  0  0  0  0
 10 11  4  0  0  0  0
 11 12  4  0  0  0  0
  7 12  4  0  0  0  0
  6 13  4  0  0  0  0
  3 13  4  0  0  0  0
 13 14  1  0  0  0  0
 14 15  1  0  0  0  0
 15 16  1  0  0  0  0
  2 16  1  0  0  0  0
 16 17  1  0  0  0  0
 17 18  2  0  0  0  0
 17 19  1  0  0  0  0
 19 20  4  0  0  0  0
 20 21  4  0  0  0  0
 21 22  4  0  0  0  0
 22 23  4  0  0  0  0
 23 24  1  0  0  0  0
 24 25  1  0  0  0  0
 24 26  1  0  0  0  0
 24 27  1  0  0  0  0
 23 28  4  0  0  0  0
 19 28  4  0  0  0  0
 28 29  1  0  0  0  0
M  END
>  <CdId>
188

>  <Mol Weight>
422.8

>  <Formula>
C18H14ClF3N6O

>  <Molecule ChEMBL ID>
CHEMBL4068397

>  <Molecule Max Phase>
None

>  <Molecular Weight>
422.8

>  <#RO5 Violations>
0

>  <AlogP>
3.49

>  <Compound Key>
12

>  <Standard Type>
IC50

>  <Standard Relation>
'>'

>  <Standard Value>
10000.0

>  <Standard Units>
nM

$$$$

  Mrv2114 03112311372D          

 30 34  0  0  0  0            999 V2000
    1.4289   -4.1250    0.0000 C   0  0  0  0  0  0  0  0  0  0  0  0
    0.7145   -3.7125    0.0000 C   0  0  0  0  0  0  0  0  0  0  0  0
    0.7145   -2.8875    0.0000 C   0  0  0  0  0  0  0  0  0  0  0  0
    1.4289   -2.4750    0.0000 C   0  0  0  0  0  0  0  0  0  0  0  0
    1.4289   -1.6500    0.0000 C   0  0  0  0  0  0  0  0  0  0  0  0
    0.7145   -1.2375    0.0000 C   0  0  0  0  0  0  0  0  0  0  0  0
    0.7145   -0.4125    0.0000 C   0  0  0  0  0  0  0  0  0  0  0  0
    1.4289    0.0000    0.0000 C   0  0  0  0  0  0  0  0  0  0  0  0
    2.1434   -0.4125    0.0000 C   0  0  0  0  0  0  0  0  0  0  0  0
    2.8579    0.0000    0.0000 N   0  0  0  0  0  0  0  0  0  0  0  0
    3.5724   -0.4125    0.0000 C   0  0  0  0  0  0  0  0  0  0  0  0
    4.2868   -0.0000    0.0000 C   0  0  0  0  0  0  0  0  0  0  0  0
    4.2868    0.8250    0.0000 C   0  0  0  0  0  0  0  0  0  0  0  0
    5.0013    1.2375    0.0000 C   0  0  0  0  0  0  0  0  0  0  0  0
    5.7158    0.8250    0.0000 C   0  0  0  0  0  0  0  0  0  0  0  0
    5.7158   -0.0000    0.0000 N   0  0  0  0  0  0  0  0  0  0  0  0
    5.0013   -0.4125    0.0000 C   0  0  0  0  0  0  0  0  0  0  0  0
    3.5724   -1.2375    0.0000 N   0  0  0  0  0  0  0  0  0  0  0  0
    2.8579   -1.6500    0.0000 C   0  0  0  0  0  0  0  0  0  0  0  0
    2.8579   -2.4750    0.0000 N   0  0  0  0  0  0  0  0  0  0  0  0
    3.5724   -2.8875    0.0000 C   0  0  0  0  0  0  0  0  0  0  0  0
    3.5724   -3.7125    0.0000 C   0  0  0  0  0  0  0  0  0  0  0  0
    4.2868   -4.1250    0.0000 C   0  0  0  0  0  0  0  0  0  0  0  0
    4.2868   -4.9500    0.0000 C   0  0  0  0  0  0  0  0  0  0  0  0
    3.5724   -5.3625    0.0000 C   0  0  0  0  0  0  0  0  0  0  0  0
    2.8579   -4.9500    0.0000 C   0  0  0  0  0  0  0  0  0  0  0  0
    2.8579   -4.1250    0.0000 N   0  0  0  0  0  0  0  0  0  0  0  0
    2.1434   -1.2375    0.0000 C   0  0  0  0  0  0  0  0  0  0  0  0
    2.1434   -2.8875    0.0000 C   0  0  0  0  0  0  0  0  0  0  0  0
    2.1434   -3.7125    0.0000 C   0  0  0  0  0  0  0  0  0  0  0  0
  1  2  4  0  0  0  0
  2  3  4  0  0  0  0
  3  4  4  0  0  0  0
  4  5  1  0  0  0  0
  5  6  4  0  0  0  0
  6  7  4  0  0  0  0
  7  8  4  0  0  0  0
  8  9  4  0  0  0  0
  9 10  4  0  0  0  0
 10 11  4  0  0  0  0
 11 12  1  0  0  0  0
 12 13  4  0  0  0  0
 13 14  4  0  0  0  0
 14 15  4  0  0  0  0
 15 16  4  0  0  0  0
 16 17  4  0  0  0  0
 12 17  4  0  0  0  0
 11 18  4  0  0  0  0
 18 19  4  0  0  0  0
 19 20  1  0  0  0  0
 20 21  1  0  0  0  0
 21 22  1  0  0  0  0
 22 23  4  0  0  0  0
 23 24  4  0  0  0  0
 24 25  4  0  0  0  0
 25 26  4  0  0  0  0
 26 27  4  0  0  0  0
 22 27  4  0  0  0  0
 19 28  4  0  0  0  0
  5 28  4  0  0  0  0
  9 28  4  0  0  0  0
  4 29  4  0  0  0  0
 29 30  4  0  0  0  0
  1 30  4  0  0  0  0
M  END
>  <CdId>
189

>  <Mol Weight>
389.462

>  <Formula>
C25H19N5

>  <Molecule ChEMBL ID>
CHEMBL4099807

>  <Molecule Max Phase>
None

>  <Molecular Weight>
389.46

>  <#RO5 Violations>
1

>  <AlogP>
5.37

>  <Compound Key>
14

>  <Standard Type>
IC50

>  <Standard Relation>
'<'

>  <Standard Value>
10000.0

>  <Standard Units>
nM

$$$$

  Mrv2114 03112311372D          

 18 17  0  0  0  0            999 V2000
    0.0000    0.0000    0.0000 Cl  0  0  0  0  0  0  0  0  0  0  0  0
    2.0036    0.0000    0.0000 Cl  0  0  0  0  0  0  0  0  0  0  0  0
    1.4736   -1.6500    0.0000 N   0  0  0  0  0  0  0  0  0  0  0  0
    0.7591   -2.0625    0.0000 C   0  0  0  0  0  0  0  0  0  0  0  0
    0.7591   -2.8875    0.0000 C   0  0  0  0  0  0  0  0  0  0  0  0
    0.7591   -3.7125    0.0000 C   0  0  0  0  0  0  0  0  0  0  0  0
    0.7591   -4.5375    0.0000 C   0  0  0  0  0  0  0  0  0  0  0  0
    1.4736   -4.9500    0.0000 C   0  0  0  0  0  0  0  0  0  0  0  0
    1.4736   -5.7750    0.0000 N   0  0  0  0  0  0  0  0  0  0  0  0
    0.7591   -6.1875    0.0000 C   0  0  0  0  0  0  0  0  0  0  0  0
    0.0447   -5.7750    0.0000 C   0  0  0  0  0  0  0  0  0  0  0  0
    0.0447   -4.9500    0.0000 C   0  0  0  0  0  0  0  0  0  0  0  0
   -0.6698   -4.5375    0.0000 C   0  0  0  0  0  0  0  0  0  0  0  0
   -1.3843   -4.9500    0.0000 C   0  0  0  0  0  0  0  0  0  0  0  0
   -2.0988   -4.5375    0.0000 C   0  0  0  0  0  0  0  0  0  0  0  0
   -2.0988   -3.7125    0.0000 C   0  0  0  0  0  0  0  0  0  0  0  0
   -1.3843   -3.3000    0.0000 C   0  0  0  0  0  0  0  0  0  0  0  0
   -0.6698   -3.7125    0.0000 C   0  0  0  0  0  0  0  0  0  0  0  0
  3  4  1  0  0  0  0
  4  5  1  0  0  0  0
  5  6  3  0  0  0  0
  6  7  1  0  0  0  0
  7  8  4  0  0  0  0
  8  9  4  0  0  0  0
  9 10  4  0  0  0  0
 10 11  4  0  0  0  0
 11 12  4  0  0  0  0
  7 12  4  0  0  0  0
 12 13  1  0  0  0  0
 13 14  4  0  0  0  0
 14 15  4  0  0  0  0
 15 16  4  0  0  0  0
 16 17  4  0  0  0  0
 17 18  4  0  0  0  0
 13 18  4  0  0  0  0
M  END
>  <CdId>
190

>  <Mol Weight>
281.18

>  <Formula>
C14H14Cl2N2

>  <Molecule ChEMBL ID>
CHEMBL4164113

>  <Molecule Max Phase>
None

>  <Molecular Weight>
281.19

>  <#RO5 Violations>
0

>  <AlogP>
2.06

>  <Compound Key>
4l

>  <Standard Type>
IC50

>  <Standard Relation>
'='

>  <Standard Value>
14000.0

>  <Standard Units>
nM

$$$$

  Mrv2114 03112311372D          

 17 16  0  0  0  0            999 V2000
   -1.8080    0.9824    0.0000 C   0  0  0  0  0  0  0  0  0  0  0  0
   -1.0935    0.5699    0.0000 O   0  0  0  0  0  0  0  0  0  0  0  0
   -0.3790    0.9824    0.0000 C   0  0  0  0  0  0  0  0  0  0  0  0
   -0.3790    1.8074    0.0000 C   0  0  0  0  0  0  0  0  0  0  0  0
    0.3354    2.2199    0.0000 C   0  0  0  0  0  0  0  0  0  0  0  0
    1.0499    1.8074    0.0000 N   0  0  0  0  0  0  0  0  0  0  0  0
    1.0499    0.9824    0.0000 C   0  0  0  0  0  0  0  0  0  0  0  0
    0.3354    0.5699    0.0000 C   0  0  0  0  0  0  0  0  0  0  0  0
    0.3354   -0.2551    0.0000 C   0  0  0  0  0  0  0  0  0  0  0  0
    1.0029   -0.7400    0.0000 C   0  0  0  0  0  0  0  0  0  0  0  0
    0.7479   -1.5246    0.0000 C   0  0  0  0  0  0  0  0  0  0  0  0
   -0.0771   -1.5246    0.0000 C   0  0  0  0  0  0  0  0  0  0  0  0
   -0.5620   -2.1920    0.0000 C   0  0  0  0  0  0  0  0  0  0  0  0
   -0.2264   -2.9457    0.0000 N   0  0  0  0  0  0  0  0  0  0  0  0
   -0.3320   -0.7400    0.0000 S   0  0  0  0  0  0  0  0  0  0  0  0
    3.0535    0.0000    0.0000 Cl  0  0  0  0  0  0  0  0  0  0  0  0
    0.0000   -4.5957    0.0000 Cl  0  0  0  0  0  0  0  0  0  0  0  0
  1  2  1  0  0  0  0
  2  3  1  0  0  0  0
  3  4  4  0  0  0  0
  4  5  4  0  0  0  0
  5  6  4  0  0  0  0
  6  7  4  0  0  0  0
  7  8  4  0  0  0  0
  3  8  4  0  0  0  0
  8  9  1  0  0  0  0
  9 10  4  0  0  0  0
 10 11  4  0  0  0  0
 11 12  4  0  0  0  0
 12 13  1  0  0  0  0
 13 14  1  0  0  0  0
 12 15  4  0  0  0  0
  9 15  4  0  0  0  0
M  END
>  <CdId>
191

>  <Mol Weight>
293.21

>  <Formula>
C11H14Cl2N2OS

>  <Molecule ChEMBL ID>
CHEMBL4172462

>  <Molecule Max Phase>
None

>  <Molecular Weight>
293.22

>  <#RO5 Violations>
0

>  <AlogP>
2.28

>  <Compound Key>
6j

>  <Standard Type>
IC50

>  <Standard Relation>
'>'

>  <Standard Value>
25000.0

>  <Standard Units>
nM

$$$$

  Mrv2114 03112311372D          

 17 16  0  0  0  0            999 V2000
    0.0000    0.0000    0.0000 Cl  0  0  0  0  0  0  0  0  0  0  0  0
    2.0036    0.0000    0.0000 Cl  0  0  0  0  0  0  0  0  0  0  0  0
   -2.9055   -3.7125    0.0000 N   0  0  0  0  0  0  0  0  0  0  0  0
   -2.1910   -4.1250    0.0000 C   0  0  0  0  0  0  0  0  0  0  0  0
   -1.4766   -3.7125    0.0000 C   0  0  0  0  0  0  0  0  0  0  0  0
   -0.7621   -3.3000    0.0000 C   0  0  0  0  0  0  0  0  0  0  0  0
   -0.0476   -2.8875    0.0000 C   0  0  0  0  0  0  0  0  0  0  0  0
   -0.0476   -2.0625    0.0000 C   0  0  0  0  0  0  0  0  0  0  0  0
    0.6668   -1.6500    0.0000 N   0  0  0  0  0  0  0  0  0  0  0  0
    1.3813   -2.0625    0.0000 C   0  0  0  0  0  0  0  0  0  0  0  0
    1.3813   -2.8875    0.0000 C   0  0  0  0  0  0  0  0  0  0  0  0
    0.6668   -3.3000    0.0000 C   0  0  0  0  0  0  0  0  0  0  0  0
    0.6668   -4.1250    0.0000 C   0  0  0  0  0  0  0  0  0  0  0  0
    1.3343   -4.6099    0.0000 C   0  0  0  0  0  0  0  0  0  0  0  0
    1.0793   -5.3945    0.0000 C   0  0  0  0  0  0  0  0  0  0  0  0
    0.2543   -5.3945    0.0000 O   0  0  0  0  0  0  0  0  0  0  0  0
   -0.0006   -4.6099    0.0000 C   0  0  0  0  0  0  0  0  0  0  0  0
  3  4  1  0  0  0  0
  4  5  1  0  0  0  0
  5  6  3  0  0  0  0
  6  7  1  0  0  0  0
  7  8  4  0  0  0  0
  8  9  4  0  0  0  0
  9 10  4  0  0  0  0
 10 11  4  0  0  0  0
 11 12  4  0  0  0  0
  7 12  4  0  0  0  0
 12 13  1  0  0  0  0
 13 14  4  0  0  0  0
 14 15  4  0  0  0  0
 15 16  4  0  0  0  0
 16 17  4  0  0  0  0
 13 17  4  0  0  0  0
M  END
>  <CdId>
192

>  <Mol Weight>
271.14

>  <Formula>
C12H12Cl2N2O

>  <Molecule ChEMBL ID>
CHEMBL4174365

>  <Molecule Max Phase>
None

>  <Molecular Weight>
271.15

>  <#RO5 Violations>
0

>  <AlogP>
1.65

>  <Compound Key>
4n

>  <Standard Type>
IC50

>  <Standard Relation>
'='

>  <Standard Value>
21000.0

>  <Standard Units>
nM

$$$$

  Mrv2114 03112311372D          

 18 17  0  0  0  0            999 V2000
   -2.3648    0.5343    0.0000 C   0  0  0  0  0  0  0  0  0  0  0  0
   -1.6503    0.9468    0.0000 C   0  0  0  0  0  0  0  0  0  0  0  0
   -0.9358    0.5343    0.0000 C   0  0  0  0  0  0  0  0  0  0  0  0
   -0.2214    0.9468    0.0000 C   0  0  0  0  0  0  0  0  0  0  0  0
   -0.2214    1.7718    0.0000 C   0  0  0  0  0  0  0  0  0  0  0  0
    0.4931    2.1843    0.0000 C   0  0  0  0  0  0  0  0  0  0  0  0
    1.2076    1.7718    0.0000 N   0  0  0  0  0  0  0  0  0  0  0  0
    1.2076    0.9468    0.0000 C   0  0  0  0  0  0  0  0  0  0  0  0
    0.4931    0.5343    0.0000 C   0  0  0  0  0  0  0  0  0  0  0  0
    0.4931   -0.2907    0.0000 C   0  0  0  0  0  0  0  0  0  0  0  0
    1.1605   -0.7756    0.0000 C   0  0  0  0  0  0  0  0  0  0  0  0
    0.9056   -1.5602    0.0000 C   0  0  0  0  0  0  0  0  0  0  0  0
    0.0806   -1.5602    0.0000 C   0  0  0  0  0  0  0  0  0  0  0  0
   -0.4043   -2.2277    0.0000 C   0  0  0  0  0  0  0  0  0  0  0  0
   -0.0688   -2.9813    0.0000 N   0  0  0  0  0  0  0  0  0  0  0  0
   -0.1743   -0.7756    0.0000 S   0  0  0  0  0  0  0  0  0  0  0  0
    3.2111    0.0000    0.0000 Cl  0  0  0  0  0  0  0  0  0  0  0  0
    0.0000   -4.6313    0.0000 Cl  0  0  0  0  0  0  0  0  0  0  0  0
  1  2  1  0  0  0  0
  2  3  1  0  0  0  0
  3  4  1  0  0  0  0
  4  5  4  0  0  0  0
  5  6  4  0  0  0  0
  6  7  4  0  0  0  0
  7  8  4  0  0  0  0
  8  9  4  0  0  0  0
  4  9  4  0  0  0  0
  9 10  1  0  0  0  0
 10 11  4  0  0  0  0
 11 12  4  0  0  0  0
 12 13  4  0  0  0  0
 13 14  1  0  0  0  0
 14 15  1  0  0  0  0
 13 16  4  0  0  0  0
 10 16  4  0  0  0  0
M  END
>  <CdId>
193

>  <Mol Weight>
305.26

>  <Formula>
C13H18Cl2N2S

>  <Molecule ChEMBL ID>
CHEMBL4165249

>  <Molecule Max Phase>
None

>  <Molecular Weight>
305.27

>  <#RO5 Violations>
0

>  <AlogP>
3.22

>  <Compound Key>
6k

>  <Standard Type>
IC50

>  <Standard Relation>
'='

>  <Standard Value>
2200.0

>  <Standard Units>
nM

$$$$

  Mrv2114 03112311372D          

 38 42  0  0  0  0            999 V2000
   -0.9902   -4.2826    0.0000 N   0  0  0  0  0  0  0  0  0  0  0  0
   -0.8186   -3.4756    0.0000 C   0  0  0  0  0  0  0  0  0  0  0  0
   -0.0340   -3.2207    0.0000 O   0  0  0  0  0  0  0  0  0  0  0  0
   -1.4317   -2.9236    0.0000 C   0  0  0  0  0  0  0  0  0  0  0  0
   -2.2164   -3.1785    0.0000 C   0  0  0  0  0  0  0  0  0  0  0  0
   -2.3879   -3.9855    0.0000 N   0  0  0  0  0  0  0  0  0  0  0  0
   -2.8295   -2.6265    0.0000 N   0  0  0  0  0  0  0  0  0  0  0  0
   -2.6579   -1.8195    0.0000 C   0  0  0  0  0  0  0  0  0  0  0  0
   -1.8733   -1.5646    0.0000 N   0  0  0  0  0  0  0  0  0  0  0  0
   -1.2602   -2.1166    0.0000 C   0  0  0  0  0  0  0  0  0  0  0  0
   -0.4756   -1.8617    0.0000 N   0  0  0  0  0  0  0  0  0  0  0  0
   -0.3041   -1.0547    0.0000 C   0  0  0  0  0  0  0  0  0  0  0  0
    0.4806   -0.7998    0.0000 C   0  0  0  0  0  0  0  0  0  0  0  0
    1.0937   -1.3518    0.0000 C   0  0  0  0  0  0  0  0  0  0  0  0
    1.8783   -1.0969    0.0000 C   0  0  0  0  0  0  0  0  0  0  0  0
    2.1332   -0.3122    0.0000 N   0  0  0  0  0  0  0  0  0  0  0  0
    2.9582   -0.3122    0.0000 C   0  0  0  0  0  0  0  0  0  0  0  0
    3.4431    0.3552    0.0000 C   0  0  0  0  0  0  0  0  0  0  0  0
    3.1076    1.1089    0.0000 C   0  0  0  0  0  0  0  0  0  0  0  0
    3.5925    1.7763    0.0000 C   0  0  0  0  0  0  0  0  0  0  0  0
    4.4130    1.6901    0.0000 C   0  0  0  0  0  0  0  0  0  0  0  0
    4.8979    2.3575    0.0000 F   0  0  0  0  0  0  0  0  0  0  0  0
    4.7485    0.9364    0.0000 C   0  0  0  0  0  0  0  0  0  0  0  0
    5.5690    0.8502    0.0000 C   0  0  0  0  0  0  0  0  0  0  0  0
    6.3895    0.7639    0.0000 F   0  0  0  0  0  0  0  0  0  0  0  0
    5.4828    0.0297    0.0000 F   0  0  0  0  0  0  0  0  0  0  0  0
    5.6553    1.6707    0.0000 F   0  0  0  0  0  0  0  0  0  0  0  0
    4.2636    0.2690    0.0000 C   0  0  0  0  0  0  0  0  0  0  0  0
    3.2132   -1.0969    0.0000 C   0  0  0  0  0  0  0  0  0  0  0  0
    2.5457   -1.5818    0.0000 N   0  0  0  0  0  0  0  0  0  0  0  0
    2.5457   -2.4068    0.0000 C   0  0  0  0  0  0  0  0  0  0  0  0
    3.2602   -2.8193    0.0000 C   0  0  0  0  0  0  0  0  0  0  0  0
    3.2602   -3.6443    0.0000 N   0  0  0  0  0  0  0  0  0  0  0  0
    3.8436   -4.2276    0.0000 C   0  0  0  0  0  0  0  0  0  0  0  0
    3.2602   -4.8110    0.0000 C   0  0  0  0  0  0  0  0  0  0  0  0
    2.6768   -4.2276    0.0000 C   0  0  0  0  0  0  0  0  0  0  0  0
    0.9221   -2.1588    0.0000 C   0  0  0  0  0  0  0  0  0  0  0  0
    0.1375   -2.4137    0.0000 C   0  0  0  0  0  0  0  0  0  0  0  0
  1  2  1  0  0  0  0
  2  3  2  0  0  0  0
  2  4  1  0  0  0  0
  4  5  4  0  0  0  0
  5  6  1  0  0  0  0
  5  7  4  0  0  0  0
  7  8  4  0  0  0  0
  8  9  4  0  0  0  0
  9 10  4  0  0  0  0
  4 10  4  0  0  0  0
 10 11  1  0  0  0  0
 11 12  1  0  0  0  0
 12 13  1  0  0  0  0
 13 14  1  0  0  0  0
 14 15  1  0  0  0  0
 15 16  4  0  0  0  0
 16 17  4  0  0  0  0
 17 18  1  0  0  0  0
 18 19  4  0  0  0  0
 19 20  4  0  0  0  0
 20 21  4  0  0  0  0
 21 22  1  0  0  0  0
 21 23  4  0  0  0  0
 23 24  1  0  0  0  0
 24 25  1  0  0  0  0
 24 26  1  0  0  0  0
 24 27  1  0  0  0  0
 23 28  4  0  0  0  0
 18 28  4  0  0  0  0
 17 29  4  0  0  0  0
 29 30  4  0  0  0  0
 15 30  4  0  0  0  0
 30 31  1  0  0  0  0
 31 32  1  0  0  0  0
 32 33  1  0  0  0  0
 33 34  1  0  0  0  0
 34 35  1  0  0  0  0
 35 36  1  0  0  0  0
 33 36  1  0  0  0  0
 14 37  1  0  0  0  0
 37 38  1  0  0  0  0
 11 38  1  0  0  0  0
M  END
>  <CdId>
194

>  <Mol Weight>
532.548

>  <Formula>
C25H28F4N8O

>  <Molecule ChEMBL ID>
CHEMBL3949501

>  <Molecule Max Phase>
None

>  <Molecular Weight>
532.55

>  <#RO5 Violations>
1

>  <AlogP>
3.27

>  <Compound Key>
37

>  <Standard Type>
IC50

>  <Standard Relation>
'>'

>  <Standard Value>
20000.0

>  <Standard Units>
nM

$$$$

  Mrv2114 03112311372D          

 31 35  0  0  1  0            999 V2000
    2.8579   -6.6000    0.0000 N   0  0  0  0  0  0  0  0  0  0  0  0
    2.1434   -6.1875    0.0000 C   0  0  0  0  0  0  0  0  0  0  0  0
    2.1434   -5.3625    0.0000 C   0  0  1  0  0  0  0  0  0  0  0  0
    1.4289   -4.9500    0.0000 C   0  0  0  0  0  0  0  0  0  0  0  0
    1.4289   -4.1250    0.0000 C   0  0  0  0  0  0  0  0  0  0  0  0
    2.1434   -3.7125    0.0000 C   0  0  2  0  0  0  0  0  0  0  0  0
    2.1434   -2.8875    0.0000 C   0  0  0  0  0  0  0  0  0  0  0  0
    1.4289   -2.4750    0.0000 N   0  0  0  0  0  0  0  0  0  0  0  0
    0.7145   -2.8875    0.0000 C   0  0  0  0  0  0  0  0  0  0  0  0
    0.0000   -2.4750    0.0000 C   0  0  1  0  0  0  0  0  0  0  0  0
   -0.7145   -2.8875    0.0000 C   0  0  0  0  0  0  0  0  0  0  0  0
   -1.4289   -2.4750    0.0000 C   0  0  0  0  0  0  0  0  0  0  0  0
   -2.1434   -2.8875    0.0000 C   0  0  0  0  0  0  0  0  0  0  0  0
   -2.8579   -2.4750    0.0000 C   0  0  0  0  0  0  0  0  0  0  0  0
   -2.8579   -1.6500    0.0000 C   0  0  0  0  0  0  0  0  0  0  0  0
   -2.1434   -1.2375    0.0000 C   0  0  0  0  0  0  0  0  0  0  0  0
   -1.4289   -1.6500    0.0000 C   0  0  0  0  0  0  0  0  0  0  0  0
   -0.7145   -1.2375    0.0000 C   0  0  0  0  0  0  0  0  0  0  0  0
    0.0000   -1.6500    0.0000 N   0  0  0  0  0  0  0  0  0  0  0  0
    1.4289   -1.6500    0.0000 C   0  0  1  0  0  0  0  0  0  0  0  0
    0.7145   -1.2375    0.0000 C   0  0  0  0  0  0  0  0  0  0  0  0
    0.7145   -0.4125    0.0000 C   0  0  0  0  0  0  0  0  0  0  0  0
    1.4289    0.0000    0.0000 C   0  0  0  0  0  0  0  0  0  0  0  0
    2.1434   -0.4125    0.0000 C   0  0  0  0  0  0  0  0  0  0  0  0
    2.8579    0.0000    0.0000 C   0  0  0  0  0  0  0  0  0  0  0  0
    3.5724   -0.4125    0.0000 C   0  0  0  0  0  0  0  0  0  0  0  0
    3.5724   -1.2375    0.0000 C   0  0  0  0  0  0  0  0  0  0  0  0
    2.8579   -1.6500    0.0000 N   0  0  0  0  0  0  0  0  0  0  0  0
    2.1434   -1.2375    0.0000 C   0  0  0  0  0  0  0  0  0  0  0  0
    2.8579   -4.1250    0.0000 C   0  0  0  0  0  0  0  0  0  0  0  0
    2.8579   -4.9500    0.0000 C   0  0  0  0  0  0  0  0  0  0  0  0
  1  2  1  0  0  0  0
  3  2  1  1  0  0  0
  3  4  1  0  0  0  0
  4  5  1  0  0  0  0
  6  5  1  0  0  0  0
  6  7  1  6  0  0  0
  7  8  1  0  0  0  0
  8  9  1  0  0  0  0
 10  9  1  1  0  0  0
 10 11  1  0  0  0  0
 11 12  1  0  0  0  0
 12 13  4  0  0  0  0
 13 14  4  0  0  0  0
 14 15  4  0  0  0  0
 15 16  4  0  0  0  0
 16 17  4  0  0  0  0
 12 17  4  0  0  0  0
 17 18  1  0  0  0  0
 18 19  1  0  0  0  0
 10 19  1  0  0  0  0
 20  8  1  1  0  0  0
 20 21  1  0  0  0  0
 21 22  1  0  0  0  0
 22 23  1  0  0  0  0
 23 24  1  0  0  0  0
 24 25  4  0  0  0  0
 25 26  4  0  0  0  0
 26 27  4  0  0  0  0
 27 28  4  0  0  0  0
 28 29  4  0  0  0  0
 24 29  4  0  0  0  0
 20 29  1  0  0  0  0
  6 30  1  0  0  0  0
 30 31  1  0  0  0  0
  3 31  1  0  0  0  0
M  END
>  <CdId>
195

>  <Mol Weight>
418.629

>  <Formula>
C27H38N4

>  <Molecule ChEMBL ID>
CHEMBL4167221

>  <Molecule Max Phase>
None

>  <Molecular Weight>
418.63

>  <#RO5 Violations>
0

>  <AlogP>
4.24

>  <Compound Key>
10d

>  <Standard Type>
IC50

>  <Standard Relation>
'='

>  <Standard Value>
4100.0

>  <Standard Units>
nM

$$$$

  Mrv2114 03112311372D          

 27 27  0  0  1  0            999 V2000
   -2.8930   -0.6928    0.0000 C   0  0  0  0  0  0  0  0  0  0  0  0
   -2.1785   -1.1053    0.0000 C   0  0  0  0  0  0  0  0  0  0  0  0
   -1.4640   -0.6928    0.0000 O   0  0  0  0  0  0  0  0  0  0  0  0
   -0.7496   -1.1053    0.0000 C   0  0  0  0  0  0  0  0  0  0  0  0
   -0.7496   -1.9303    0.0000 O   0  0  0  0  0  0  0  0  0  0  0  0
   -0.0351   -0.6928    0.0000 C   0  0  1  0  0  0  0  0  0  0  0  0
   -0.0351    0.1322    0.0000 C   0  0  0  0  0  0  0  0  0  0  0  0
   -0.7496    0.5447    0.0000 C   0  0  0  0  0  0  0  0  0  0  0  0
   -1.5032    0.2091    0.0000 C   0  0  0  0  0  0  0  0  0  0  0  0
   -2.0553    0.8222    0.0000 N   0  0  0  0  0  0  0  0  0  0  0  0
   -2.8757    0.7360    0.0000 C   0  0  0  0  0  0  0  0  0  0  0  0
   -1.6428    1.5367    0.0000 C   0  0  0  0  0  0  0  0  0  0  0  0
   -1.8977    2.3213    0.0000 C   0  0  0  0  0  0  0  0  0  0  0  0
   -1.3457    2.9344    0.0000 C   0  0  0  0  0  0  0  0  0  0  0  0
   -0.5387    2.7629    0.0000 C   0  0  0  0  0  0  0  0  0  0  0  0
   -0.2838    1.9782    0.0000 C   0  0  0  0  0  0  0  0  0  0  0  0
   -0.8358    1.3651    0.0000 C   0  0  0  0  0  0  0  0  0  0  0  0
    0.6794   -1.1053    0.0000 N   0  0  0  0  0  0  0  0  0  0  0  0
    1.3939   -0.6928    0.0000 C   0  0  0  0  0  0  0  0  0  0  0  0
    1.3939    0.1322    0.0000 O   0  0  0  0  0  0  0  0  0  0  0  0
    2.1083   -1.1053    0.0000 C   0  0  1  0  0  0  0  0  0  0  0  0
    2.1083   -1.9303    0.0000 N   0  0  0  0  0  0  0  0  0  0  0  0
    2.8228   -0.6928    0.0000 C   0  0  0  0  0  0  0  0  0  0  0  0
    3.5373   -1.1053    0.0000 C   0  0  0  0  0  0  0  0  0  0  0  0
    4.2517   -0.6928    0.0000 C   0  0  0  0  0  0  0  0  0  0  0  0
    3.5373   -1.9303    0.0000 C   0  0  0  0  0  0  0  0  0  0  0  0
    6.2553    0.0000    0.0000 Cl  0  0  0  0  0  0  0  0  0  0  0  0
  1  2  1  0  0  0  0
  2  3  1  0  0  0  0
  3  4  1  0  0  0  0
  4  5  2  0  0  0  0
  6  4  1  0  0  0  0
  6  7  1  0  0  0  0
  7  8  1  0  0  0  0
  8  9  4  0  0  0  0
  9 10  4  0  0  0  0
 10 11  1  0  0  0  0
 10 12  4  0  0  0  0
 12 13  4  0  0  0  0
 13 14  4  0  0  0  0
 14 15  4  0  0  0  0
 15 16  4  0  0  0  0
 16 17  4  0  0  0  0
  8 17  4  0  0  0  0
 12 17  4  0  0  0  0
  6 18  1  1  0  0  0
 18 19  1  0  0  0  0
 19 20  2  0  0  0  0
 21 19  1  0  0  0  0
 21 22  1  6  0  0  0
 21 23  1  0  0  0  0
 23 24  1  0  0  0  0
 24 25  1  0  0  0  0
 24 26  1  0  0  0  0
M  END
>  <CdId>
196

>  <Mol Weight>
395.93

>  <Formula>
C20H30ClN3O3

>  <Molecule ChEMBL ID>
CHEMBL4876008

>  <Molecule Max Phase>
None

>  <Molecular Weight>
395.93

>  <#RO5 Violations>
0

>  <AlogP>
2.14

>  <Compound Key>
62-Cl; NLG802

>  <Standard Type>
IC50

>  <Standard Relation>
'>'

>  <Standard Value>
50000.0

>  <Standard Units>
nM

$$$$

  Mrv2114 03112311372D          

 31 35  0  0  0  0            999 V2000
   -1.8557   -8.2522    0.0000 C   0  0  0  0  0  0  0  0  0  0  0  0
   -1.8557   -7.4272    0.0000 C   0  0  0  0  0  0  0  0  0  0  0  0
   -2.5702   -7.0147    0.0000 C   0  0  0  0  0  0  0  0  0  0  0  0
   -2.5702   -6.1897    0.0000 C   0  0  0  0  0  0  0  0  0  0  0  0
   -1.8557   -5.7772    0.0000 C   0  0  0  0  0  0  0  0  0  0  0  0
   -1.1413   -6.1897    0.0000 C   0  0  0  0  0  0  0  0  0  0  0  0
   -0.4268   -5.7772    0.0000 C   0  0  0  0  0  0  0  0  0  0  0  0
   -0.4268   -4.9522    0.0000 C   0  0  0  0  0  0  0  0  0  0  0  0
   -1.1413   -4.5397    0.0000 O   0  0  0  0  0  0  0  0  0  0  0  0
    0.2877   -4.5397    0.0000 N   0  0  0  0  0  0  0  0  0  0  0  0
    1.0413   -4.8753    0.0000 C   0  0  0  0  0  0  0  0  0  0  0  0
    1.5934   -4.2622    0.0000 C   0  0  0  0  0  0  0  0  0  0  0  0
    1.1809   -3.5477    0.0000 C   0  0  0  0  0  0  0  0  0  0  0  0
    0.3739   -3.7192    0.0000 C   0  0  0  0  0  0  0  0  0  0  0  0
   -0.1781   -3.1062    0.0000 C   0  0  0  0  0  0  0  0  0  0  0  0
    0.0768   -2.3215    0.0000 C   0  0  0  0  0  0  0  0  0  0  0  0
    0.8838   -2.1500    0.0000 C   0  0  0  0  0  0  0  0  0  0  0  0
    1.1387   -1.3654    0.0000 C   0  0  0  0  0  0  0  0  0  0  0  0
    0.6538   -0.6979    0.0000 C   0  0  0  0  0  0  0  0  0  0  0  0
    1.1387   -0.0305    0.0000 N   0  0  0  0  0  0  0  0  0  0  0  0
    0.8838    0.7541    0.0000 C   0  0  0  0  0  0  0  0  0  0  0  0
    1.9233   -0.2854    0.0000 C   0  0  0  0  0  0  0  0  0  0  0  0
    2.6378    0.1271    0.0000 N   0  0  0  0  0  0  0  0  0  0  0  0
    3.3523   -0.2854    0.0000 C   0  0  0  0  0  0  0  0  0  0  0  0
    3.3523   -1.1104    0.0000 N   0  0  0  0  0  0  0  0  0  0  0  0
    2.6378   -1.5229    0.0000 C   0  0  0  0  0  0  0  0  0  0  0  0
    2.6378   -2.3479    0.0000 N   0  0  0  0  0  0  0  0  0  0  0  0
    1.9233   -1.1104    0.0000 C   0  0  0  0  0  0  0  0  0  0  0  0
    1.4358   -2.7631    0.0000 C   0  0  0  0  0  0  0  0  0  0  0  0
    2.2428   -2.5916    0.0000 F   0  0  0  0  0  0  0  0  0  0  0  0
   -1.1413   -7.0147    0.0000 N   0  0  0  0  0  0  0  0  0  0  0  0
  1  2  1  0  0  0  0
  2  3  4  0  0  0  0
  3  4  4  0  0  0  0
  4  5  4  0  0  0  0
  5  6  4  0  0  0  0
  6  7  1  0  0  0  0
  7  8  1  0  0  0  0
  8  9  2  0  0  0  0
  8 10  1  0  0  0  0
 10 11  1  0  0  0  0
 11 12  1  0  0  0  0
 12 13  1  0  0  0  0
 13 14  4  0  0  0  0
 10 14  1  0  0  0  0
 14 15  4  0  0  0  0
 15 16  4  0  0  0  0
 16 17  4  0  0  0  0
 17 18  1  0  0  0  0
 18 19  4  0  0  0  0
 19 20  4  0  0  0  0
 20 21  1  0  0  0  0
 20 22  4  0  0  0  0
 22 23  4  0  0  0  0
 23 24  4  0  0  0  0
 24 25  4  0  0  0  0
 25 26  4  0  0  0  0
 26 27  1  0  0  0  0
 26 28  4  0  0  0  0
 18 28  4  0  0  0  0
 22 28  4  0  0  0  0
 17 29  4  0  0  0  0
 13 29  4  0  0  0  0
 29 30  1  0  0  0  0
  6 31  4  0  0  0  0
  2 31  4  0  0  0  0
M  END
>  <CdId>
197

>  <Mol Weight>
416.46

>  <Formula>
C23H21FN6O

>  <Molecule ChEMBL ID>
CHEMBL2441340

>  <Molecule Max Phase>
None

>  <Molecular Weight>
416.46

>  <#RO5 Violations>
0

>  <AlogP>
3.19

>  <Compound Key>
6, GSK2656157

>  <Standard Type>
IC50

>  <Standard Relation>
'>'

>  <Standard Value>
25000.0

>  <Standard Units>
nM

$$$$

  Mrv2114 03112311372D          

 31 33  0  0  0  0            999 V2000
    1.4289   -4.9500    0.0000 C   0  0  0  0  0  0  0  0  0  0  0  0
    2.1434   -5.3625    0.0000 O   0  0  0  0  0  0  0  0  0  0  0  0
    2.1434   -6.1875    0.0000 C   0  0  0  0  0  0  0  0  0  0  0  0
    2.8579   -6.6000    0.0000 C   0  0  0  0  0  0  0  0  0  0  0  0
    2.8579   -7.4250    0.0000 C   0  0  0  0  0  0  0  0  0  0  0  0
    2.1434   -7.8375    0.0000 C   0  0  0  0  0  0  0  0  0  0  0  0
    2.1434   -8.6625    0.0000 C   0  0  0  0  0  0  0  0  0  0  0  0
    2.8579   -9.0750    0.0000 O   0  0  0  0  0  0  0  0  0  0  0  0
    2.8579   -9.9000    0.0000 C   0  0  0  0  0  0  0  0  0  0  0  0
    3.5724  -10.3125    0.0000 C   0  0  0  0  0  0  0  0  0  0  0  0
    3.5724  -11.1375    0.0000 N   0  0  0  0  0  0  0  0  0  0  0  0
    2.8579  -11.5500    0.0000 N   0  0  0  0  0  0  0  0  0  0  0  0
    2.8579  -12.3750    0.0000 C   0  0  0  0  0  0  0  0  0  0  0  0
    3.5724  -12.7875    0.0000 C   0  0  0  0  0  0  0  0  0  0  0  0
    4.2868  -12.3750    0.0000 O   0  0  0  0  0  0  0  0  0  0  0  0
    3.5724  -13.6125    0.0000 C   0  0  0  0  0  0  0  0  0  0  0  0
    4.2868  -14.0250    0.0000 C   0  0  0  0  0  0  0  0  0  0  0  0
    4.2868  -14.8500    0.0000 C   0  0  0  0  0  0  0  0  0  0  0  0
    3.5724  -15.2625    0.0000 C   0  0  0  0  0  0  0  0  0  0  0  0
    3.5724  -16.0875    0.0000 C   0  0  0  0  0  0  0  0  0  0  0  0
    2.8579  -16.5000    0.0000 N   0  0  0  0  0  0  0  0  0  0  0  0
    2.8579  -17.3250    0.0000 C   0  0  0  0  0  0  0  0  0  0  0  0
    2.1434  -16.0875    0.0000 C   0  0  0  0  0  0  0  0  0  0  0  0
    2.8579  -14.8500    0.0000 C   0  0  0  0  0  0  0  0  0  0  0  0
    2.8579  -14.0250    0.0000 C   0  0  0  0  0  0  0  0  0  0  0  0
    2.1434  -13.6125    0.0000 C   0  0  0  0  0  0  0  0  0  0  0  0
    2.1434  -11.1375    0.0000 C   0  0  0  0  0  0  0  0  0  0  0  0
    1.4289  -11.5500    0.0000 O   0  0  0  0  0  0  0  0  0  0  0  0
    2.1434  -10.3125    0.0000 C   0  0  0  0  0  0  0  0  0  0  0  0
    1.4289   -7.4250    0.0000 N   0  0  0  0  0  0  0  0  0  0  0  0
    1.4289   -6.6000    0.0000 C   0  0  0  0  0  0  0  0  0  0  0  0
  1  2  1  0  0  0  0
  2  3  1  0  0  0  0
  3  4  4  0  0  0  0
  4  5  4  0  0  0  0
  5  6  4  0  0  0  0
  6  7  1  0  0  0  0
  7  8  1  0  0  0  0
  8  9  1  0  0  0  0
  9 10  4  0  0  0  0
 10 11  4  0  0  0  0
 11 12  4  0  0  0  0
 12 13  1  0  0  0  0
 13 14  1  0  0  0  0
 14 15  2  0  0  0  0
 14 16  1  0  0  0  0
 16 17  4  0  0  0  0
 17 18  4  0  0  0  0
 18 19  4  0  0  0  0
 19 20  1  0  0  0  0
 20 21  1  0  0  0  0
 21 22  1  0  0  0  0
 21 23  1  0  0  0  0
 19 24  4  0  0  0  0
 24 25  4  0  0  0  0
 16 25  4  0  0  0  0
 25 26  1  0  0  0  0
 12 27  4  0  0  0  0
 27 28  2  0  0  0  0
 27 29  4  0  0  0  0
  9 29  4  0  0  0  0
  6 30  4  0  0  0  0
 30 31  4  0  0  0  0
  3 31  4  0  0  0  0
M  END
>  <CdId>
198

>  <Mol Weight>
422.485

>  <Formula>
C23H26N4O4

>  <Molecule ChEMBL ID>
CHEMBL3601377

>  <Molecule Max Phase>
None

>  <Molecular Weight>
422.49

>  <#RO5 Violations>
0

>  <AlogP>
2.48

>  <Compound Key>
11g, BI 186908

>  <Standard Type>
IC50

>  <Standard Relation>
'>'

>  <Standard Value>
50000.0

>  <Standard Units>
nM

$$$$

  Mrv2114 03112311372D          

 82 88  0  0  1  0            999 V2000
    3.9408   13.0466    0.0000 C   0  0  0  0  0  0  0  0  0  0  0  0
    4.7088   12.7452    0.0000 C   0  0  0  0  0  0  0  0  0  0  0  0
    4.8317   11.9294    0.0000 C   0  0  0  0  0  0  0  0  0  0  0  0
    5.5997   11.6280    0.0000 C   0  0  0  0  0  0  0  0  0  0  0  0
    5.7227   10.8122    0.0000 C   0  0  0  0  0  0  0  0  0  0  0  0
    6.4906   10.5108    0.0000 O   0  0  0  0  0  0  0  0  0  0  0  0
    6.6136    9.6950    0.0000 C   0  0  0  0  0  0  0  0  0  0  0  0
    7.3816    9.3936    0.0000 C   0  0  0  0  0  0  0  0  0  0  0  0
    7.5045    8.5778    0.0000 C   0  0  0  0  0  0  0  0  0  0  0  0
    6.8595    8.0635    0.0000 C   0  0  0  0  0  0  0  0  0  0  0  0
    6.9825    7.2477    0.0000 C   0  0  0  0  0  0  0  0  0  0  0  0
    7.7504    6.9463    0.0000 C   0  0  0  0  0  0  0  0  0  0  0  0
    7.8734    6.1305    0.0000 C   0  0  0  0  0  0  0  0  0  0  0  0
    7.2284    5.6161    0.0000 C   0  0  0  0  0  0  0  0  0  0  0  0
    7.3514    4.8003    0.0000 C   0  0  0  0  0  0  0  0  0  0  0  0
    8.1193    4.4989    0.0000 C   0  0  0  0  0  0  0  0  0  0  0  0
    8.2423    3.6831    0.0000 C   0  0  0  0  0  0  0  0  0  0  0  0
    7.5973    3.1687    0.0000 C   0  0  0  0  0  0  0  0  0  0  0  0
    7.7202    2.3530    0.0000 C   0  0  0  0  0  0  0  0  0  0  0  0
    8.4882    2.0515    0.0000 O   0  0  0  0  0  0  0  0  0  0  0  0
    7.0752    1.8386    0.0000 N   0  0  0  0  0  0  0  0  0  0  0  0
    7.1982    1.0228    0.0000 C   0  0  1  0  0  0  0  0  0  0  0  0
    8.0232    1.0228    0.0000 C   0  0  0  0  0  0  0  0  0  0  0  0
    8.8115    0.7796    0.0000 C   0  0  1  0  0  0  0  0  0  0  0  0
    9.1695    1.5229    0.0000 O   0  0  0  0  0  0  0  0  0  0  0  0
    9.4932    0.3149    0.0000 C   0  0  1  0  0  0  0  0  0  0  0  0
   10.0543    0.9196    0.0000 O   0  0  0  0  0  0  0  0  0  0  0  0
   10.0076   -0.3301    0.0000 N   0  0  0  0  0  0  0  0  0  0  0  0
   10.3090   -1.0981    0.0000 C   0  0  0  0  0  0  0  0  0  0  0  0
   11.1133   -0.9145    0.0000 O   0  0  0  0  0  0  0  0  0  0  0  0
   10.3706   -1.9208    0.0000 C   0  0  2  0  0  0  0  0  0  0  0  0
   11.1923   -1.8468    0.0000 C   0  0  1  0  0  0  0  0  0  0  0  0
   11.6154   -1.1386    0.0000 O   0  0  0  0  0  0  0  0  0  0  0  0
   11.5165   -2.6055    0.0000 C   0  0  1  0  0  0  0  0  0  0  0  0
   12.3209   -2.7890    0.0000 C   0  0  0  0  0  0  0  0  0  0  0  0
   10.8953   -3.1483    0.0000 C   0  0  0  0  0  0  0  0  0  0  0  0
   10.1870   -2.7251    0.0000 N   0  0  0  0  0  0  0  0  0  0  0  0
    9.7745   -3.4396    0.0000 C   0  0  0  0  0  0  0  0  0  0  0  0
   10.4195   -3.9540    0.0000 O   0  0  0  0  0  0  0  0  0  0  0  0
    9.1698   -4.0007    0.0000 C   0  0  2  0  0  0  0  0  0  0  0  0
    9.6345   -4.6824    0.0000 C   0  0  1  0  0  0  0  0  0  0  0  0
   10.4572   -4.6207    0.0000 C   0  0  0  0  0  0  0  0  0  0  0  0
    9.2766   -5.4257    0.0000 O   0  0  0  0  0  0  0  0  0  0  0  0
    8.4265   -4.3587    0.0000 N   0  0  0  0  0  0  0  0  0  0  0  0
    7.6107   -4.4816    0.0000 C   0  0  0  0  0  0  0  0  0  0  0  0
    7.6107   -5.3066    0.0000 O   0  0  0  0  0  0  0  0  0  0  0  0
    6.7949   -4.3587    0.0000 C   0  0  2  0  0  0  0  0  0  0  0  0
    6.5517   -5.1470    0.0000 C   0  0  2  0  0  0  0  0  0  0  0  0
    7.1129   -5.7518    0.0000 O   0  0  0  0  0  0  0  0  0  0  0  0
    5.7474   -5.3306    0.0000 C   0  0  1  0  0  0  0  0  0  0  0  0
    5.1863   -4.7258    0.0000 O   0  0  0  0  0  0  0  0  0  0  0  0
    5.5042   -6.1190    0.0000 C   0  0  0  0  0  0  0  0  0  0  0  0
    6.0654   -6.7237    0.0000 C   0  0  0  0  0  0  0  0  0  0  0  0
    5.8222   -7.5121    0.0000 C   0  0  0  0  0  0  0  0  0  0  0  0
    5.0179   -7.6957    0.0000 C   0  0  0  0  0  0  0  0  0  0  0  0
    4.7747   -8.4840    0.0000 O   0  0  0  0  0  0  0  0  0  0  0  0
    4.4567   -7.0909    0.0000 C   0  0  0  0  0  0  0  0  0  0  0  0
    4.6999   -6.3025    0.0000 C   0  0  0  0  0  0  0  0  0  0  0  0
    6.0516   -4.0007    0.0000 N   0  0  0  0  0  0  0  0  0  0  0  0
    5.4468   -3.4396    0.0000 C   0  0  0  0  0  0  0  0  0  0  0  0
    4.8018   -3.9540    0.0000 O   0  0  0  0  0  0  0  0  0  0  0  0
    5.0343   -2.7251    0.0000 C   0  0  2  0  0  0  0  0  0  0  0  0
    4.3261   -3.1483    0.0000 C   0  0  0  0  0  0  0  0  0  0  0  0
    3.7048   -2.6055    0.0000 C   0  0  1  0  0  0  0  0  0  0  0  0
    2.9005   -2.7890    0.0000 O   0  0  0  0  0  0  0  0  0  0  0  0
    4.0291   -1.8468    0.0000 C   0  0  0  0  0  0  0  0  0  0  0  0
    4.8507   -1.9208    0.0000 N   0  0  0  0  0  0  0  0  0  0  0  0
    4.9124   -1.0981    0.0000 C   0  0  0  0  0  0  0  0  0  0  0  0
    4.1081   -0.9145    0.0000 O   0  0  0  0  0  0  0  0  0  0  0  0
    5.2138   -0.3301    0.0000 C   0  0  2  0  0  0  0  0  0  0  0  0
    4.4993    0.0824    0.0000 C   0  0  1  0  0  0  0  0  0  0  0  0
    4.4993    0.9074    0.0000 C   0  0  0  0  0  0  0  0  0  0  0  0
    3.7849   -0.3301    0.0000 O   0  0  0  0  0  0  0  0  0  0  0  0
    5.7282    0.3149    0.0000 N   0  0  0  0  0  0  0  0  0  0  0  0
    6.4098    0.7796    0.0000 C   0  0  0  0  0  0  0  0  0  0  0  0
    6.0519    1.5229    0.0000 O   0  0  0  0  0  0  0  0  0  0  0  0
    6.8293    3.4701    0.0000 C   0  0  0  0  0  0  0  0  0  0  0  0
    6.7063    4.2859    0.0000 C   0  0  0  0  0  0  0  0  0  0  0  0
    6.4604    5.9175    0.0000 C   0  0  0  0  0  0  0  0  0  0  0  0
    6.3375    6.7333    0.0000 C   0  0  0  0  0  0  0  0  0  0  0  0
    6.0915    8.3649    0.0000 C   0  0  0  0  0  0  0  0  0  0  0  0
    5.9686    9.1806    0.0000 C   0  0  0  0  0  0  0  0  0  0  0  0
  1  2  1  0  0  0  0
  2  3  1  0  0  0  0
  3  4  1  0  0  0  0
  4  5  1  0  0  0  0
  5  6  1  0  0  0  0
  6  7  1  0  0  0  0
  7  8  4  0  0  0  0
  8  9  4  0  0  0  0
  9 10  4  0  0  0  0
 10 11  1  0  0  0  0
 11 12  4  0  0  0  0
 12 13  4  0  0  0  0
 13 14  4  0  0  0  0
 14 15  1  0  0  0  0
 15 16  4  0  0  0  0
 16 17  4  0  0  0  0
 17 18  4  0  0  0  0
 18 19  1  0  0  0  0
 19 20  2  0  0  0  0
 19 21  1  0  0  0  0
 22 21  1  1  0  0  0
 22 23  1  0  0  0  0
 24 23  1  0  0  0  0
 24 25  1  1  0  0  0
 24 26  1  0  0  0  0
 26 27  1  1  0  0  0
 26 28  1  0  0  0  0
 28 29  1  0  0  0  0
 29 30  2  0  0  0  0
 31 29  1  0  0  0  0
 32 31  1  0  0  0  0
 32 33  1  1  0  0  0
 32 34  1  0  0  0  0
 34 35  1  1  0  0  0
 34 36  1  0  0  0  0
 36 37  1  0  0  0  0
 31 37  1  6  0  0  0
 37 38  1  0  0  0  0
 38 39  2  0  0  0  0
 40 38  1  0  0  0  0
 40 41  1  6  0  0  0
 41 42  1  0  0  0  0
 41 43  1  1  0  0  0
 40 44  1  0  0  0  0
 44 45  1  0  0  0  0
 45 46  2  0  0  0  0
 47 45  1  0  0  0  0
 48 47  1  0  0  0  0
 48 49  1  6  0  0  0
 48 50  1  0  0  0  0
 50 51  1  6  0  0  0
 50 52  1  0  0  0  0
 52 53  4  0  0  0  0
 53 54  4  0  0  0  0
 54 55  4  0  0  0  0
 55 56  1  0  0  0  0
 55 57  4  0  0  0  0
 57 58  4  0  0  0  0
 52 58  4  0  0  0  0
 47 59  1  6  0  0  0
 59 60  1  0  0  0  0
 60 61  2  0  0  0  0
 62 60  1  0  0  0  0
 62 63  1  0  0  0  0
 64 63  1  0  0  0  0
 64 65  1  1  0  0  0
 64 66  1  0  0  0  0
 66 67  1  0  0  0  0
 62 67  1  6  0  0  0
 67 68  1  0  0  0  0
 68 69  2  0  0  0  0
 70 68  1  0  0  0  0
 70 71  1  6  0  0  0
 71 72  1  0  0  0  0
 71 73  1  6  0  0  0
 70 74  1  0  0  0  0
 74 75  1  0  0  0  0
 22 75  1  0  0  0  0
 75 76  2  0  0  0  0
 18 77  4  0  0  0  0
 77 78  4  0  0  0  0
 15 78  4  0  0  0  0
 14 79  4  0  0  0  0
 79 80  4  0  0  0  0
 11 80  4  0  0  0  0
 10 81  4  0  0  0  0
 81 82  4  0  0  0  0
  7 82  4  0  0  0  0
M  END
>  <CdId>
199

>  <Mol Weight>
1140.254

>  <Formula>
C58H73N7O17

>  <Molecule ChEMBL ID>
CHEMBL264241

>  <Molecule Name>
ANIDULAFUNGIN

>  <Molecule Max Phase>
4

>  <Molecular Weight>
1140.25

>  <#RO5 Violations>
None

>  <AlogP>
None

>  <Compound Key>
Anidulafungin

>  <Standard Type>
IC50

>  <Standard Relation>
'='

>  <Standard Value>
12000.0

>  <Standard Units>
nM

$$$$

  Mrv2114 03112311372D          

 82 88  0  0  1  0            999 V2000
    3.9408   13.0466    0.0000 C   0  0  0  0  0  0  0  0  0  0  0  0
    4.7088   12.7452    0.0000 C   0  0  0  0  0  0  0  0  0  0  0  0
    4.8317   11.9294    0.0000 C   0  0  0  0  0  0  0  0  0  0  0  0
    5.5997   11.6280    0.0000 C   0  0  0  0  0  0  0  0  0  0  0  0
    5.7227   10.8122    0.0000 C   0  0  0  0  0  0  0  0  0  0  0  0
    6.4906   10.5108    0.0000 O   0  0  0  0  0  0  0  0  0  0  0  0
    6.6136    9.6950    0.0000 C   0  0  0  0  0  0  0  0  0  0  0  0
    7.3816    9.3936    0.0000 C   0  0  0  0  0  0  0  0  0  0  0  0
    7.5045    8.5778    0.0000 C   0  0  0  0  0  0  0  0  0  0  0  0
    6.8595    8.0635    0.0000 C   0  0  0  0  0  0  0  0  0  0  0  0
    6.9825    7.2477    0.0000 C   0  0  0  0  0  0  0  0  0  0  0  0
    7.7504    6.9463    0.0000 C   0  0  0  0  0  0  0  0  0  0  0  0
    7.8734    6.1305    0.0000 C   0  0  0  0  0  0  0  0  0  0  0  0
    7.2284    5.6161    0.0000 C   0  0  0  0  0  0  0  0  0  0  0  0
    7.3514    4.8003    0.0000 C   0  0  0  0  0  0  0  0  0  0  0  0
    8.1193    4.4989    0.0000 C   0  0  0  0  0  0  0  0  0  0  0  0
    8.2423    3.6831    0.0000 C   0  0  0  0  0  0  0  0  0  0  0  0
    7.5973    3.1687    0.0000 C   0  0  0  0  0  0  0  0  0  0  0  0
    7.7202    2.3530    0.0000 C   0  0  0  0  0  0  0  0  0  0  0  0
    8.4882    2.0515    0.0000 O   0  0  0  0  0  0  0  0  0  0  0  0
    7.0752    1.8386    0.0000 N   0  0  0  0  0  0  0  0  0  0  0  0
    7.1982    1.0228    0.0000 C   0  0  1  0  0  0  0  0  0  0  0  0
    8.0232    1.0228    0.0000 C   0  0  0  0  0  0  0  0  0  0  0  0
    8.8115    0.7796    0.0000 C   0  0  1  0  0  0  0  0  0  0  0  0
    9.1695    1.5229    0.0000 O   0  0  0  0  0  0  0  0  0  0  0  0
    9.4932    0.3149    0.0000 C   0  0  1  0  0  0  0  0  0  0  0  0
   10.0543    0.9196    0.0000 O   0  0  0  0  0  0  0  0  0  0  0  0
   10.0076   -0.3301    0.0000 N   0  0  0  0  0  0  0  0  0  0  0  0
   10.3090   -1.0981    0.0000 C   0  0  0  0  0  0  0  0  0  0  0  0
   11.1133   -0.9145    0.0000 O   0  0  0  0  0  0  0  0  0  0  0  0
   10.3706   -1.9208    0.0000 C   0  0  2  0  0  0  0  0  0  0  0  0
   11.1923   -1.8468    0.0000 C   0  0  1  0  0  0  0  0  0  0  0  0
   11.6154   -1.1386    0.0000 O   0  0  0  0  0  0  0  0  0  0  0  0
   11.5165   -2.6055    0.0000 C   0  0  1  0  0  0  0  0  0  0  0  0
   12.3209   -2.7890    0.0000 C   0  0  0  0  0  0  0  0  0  0  0  0
   10.8953   -3.1483    0.0000 C   0  0  0  0  0  0  0  0  0  0  0  0
   10.1870   -2.7251    0.0000 N   0  0  0  0  0  0  0  0  0  0  0  0
    9.7745   -3.4396    0.0000 C   0  0  0  0  0  0  0  0  0  0  0  0
   10.4195   -3.9540    0.0000 O   0  0  0  0  0  0  0  0  0  0  0  0
    9.1698   -4.0007    0.0000 C   0  0  2  0  0  0  0  0  0  0  0  0
    9.6345   -4.6824    0.0000 C   0  0  1  0  0  0  0  0  0  0  0  0
   10.4572   -4.6207    0.0000 C   0  0  0  0  0  0  0  0  0  0  0  0
    9.2766   -5.4257    0.0000 O   0  0  0  0  0  0  0  0  0  0  0  0
    8.4265   -4.3587    0.0000 N   0  0  0  0  0  0  0  0  0  0  0  0
    7.6107   -4.4816    0.0000 C   0  0  0  0  0  0  0  0  0  0  0  0
    7.6107   -5.3066    0.0000 O   0  0  0  0  0  0  0  0  0  0  0  0
    6.7949   -4.3587    0.0000 C   0  0  2  0  0  0  0  0  0  0  0  0
    6.5517   -5.1470    0.0000 C   0  0  2  0  0  0  0  0  0  0  0  0
    7.1129   -5.7518    0.0000 O   0  0  0  0  0  0  0  0  0  0  0  0
    5.7474   -5.3306    0.0000 C   0  0  1  0  0  0  0  0  0  0  0  0
    5.1863   -4.7258    0.0000 O   0  0  0  0  0  0  0  0  0  0  0  0
    5.5042   -6.1190    0.0000 C   0  0  0  0  0  0  0  0  0  0  0  0
    6.0654   -6.7237    0.0000 C   0  0  0  0  0  0  0  0  0  0  0  0
    5.8222   -7.5121    0.0000 C   0  0  0  0  0  0  0  0  0  0  0  0
    5.0179   -7.6957    0.0000 C   0  0  0  0  0  0  0  0  0  0  0  0
    4.7747   -8.4840    0.0000 O   0  0  0  0  0  0  0  0  0  0  0  0
    4.4567   -7.0909    0.0000 C   0  0  0  0  0  0  0  0  0  0  0  0
    4.6999   -6.3025    0.0000 C   0  0  0  0  0  0  0  0  0  0  0  0
    6.0516   -4.0007    0.0000 N   0  0  0  0  0  0  0  0  0  0  0  0
    5.4468   -3.4396    0.0000 C   0  0  0  0  0  0  0  0  0  0  0  0
    4.8018   -3.9540    0.0000 O   0  0  0  0  0  0  0  0  0  0  0  0
    5.0343   -2.7251    0.0000 C   0  0  2  0  0  0  0  0  0  0  0  0
    4.3261   -3.1483    0.0000 C   0  0  0  0  0  0  0  0  0  0  0  0
    3.7048   -2.6055    0.0000 C   0  0  1  0  0  0  0  0  0  0  0  0
    2.9005   -2.7890    0.0000 O   0  0  0  0  0  0  0  0  0  0  0  0
    4.0291   -1.8468    0.0000 C   0  0  0  0  0  0  0  0  0  0  0  0
    4.8507   -1.9208    0.0000 N   0  0  0  0  0  0  0  0  0  0  0  0
    4.9124   -1.0981    0.0000 C   0  0  0  0  0  0  0  0  0  0  0  0
    4.1081   -0.9145    0.0000 O   0  0  0  0  0  0  0  0  0  0  0  0
    5.2138   -0.3301    0.0000 C   0  0  2  0  0  0  0  0  0  0  0  0
    4.4993    0.0824    0.0000 C   0  0  1  0  0  0  0  0  0  0  0  0
    4.4993    0.9074    0.0000 C   0  0  0  0  0  0  0  0  0  0  0  0
    3.7849   -0.3301    0.0000 O   0  0  0  0  0  0  0  0  0  0  0  0
    5.7282    0.3149    0.0000 N   0  0  0  0  0  0  0  0  0  0  0  0
    6.4098    0.7796    0.0000 C   0  0  0  0  0  0  0  0  0  0  0  0
    6.0519    1.5229    0.0000 O   0  0  0  0  0  0  0  0  0  0  0  0
    6.8293    3.4701    0.0000 C   0  0  0  0  0  0  0  0  0  0  0  0
    6.7063    4.2859    0.0000 C   0  0  0  0  0  0  0  0  0  0  0  0
    6.4604    5.9175    0.0000 C   0  0  0  0  0  0  0  0  0  0  0  0
    6.3375    6.7333    0.0000 C   0  0  0  0  0  0  0  0  0  0  0  0
    6.0915    8.3649    0.0000 C   0  0  0  0  0  0  0  0  0  0  0  0
    5.9686    9.1806    0.0000 C   0  0  0  0  0  0  0  0  0  0  0  0
  1  2  1  0  0  0  0
  2  3  1  0  0  0  0
  3  4  1  0  0  0  0
  4  5  1  0  0  0  0
  5  6  1  0  0  0  0
  6  7  1  0  0  0  0
  7  8  4  0  0  0  0
  8  9  4  0  0  0  0
  9 10  4  0  0  0  0
 10 11  1  0  0  0  0
 11 12  4  0  0  0  0
 12 13  4  0  0  0  0
 13 14  4  0  0  0  0
 14 15  1  0  0  0  0
 15 16  4  0  0  0  0
 16 17  4  0  0  0  0
 17 18  4  0  0  0  0
 18 19  1  0  0  0  0
 19 20  2  0  0  0  0
 19 21  1  0  0  0  0
 22 21  1  1  0  0  0
 22 23  1  0  0  0  0
 24 23  1  0  0  0  0
 24 25  1  1  0  0  0
 24 26  1  0  0  0  0
 26 27  1  1  0  0  0
 26 28  1  0  0  0  0
 28 29  1  0  0  0  0
 29 30  2  0  0  0  0
 31 29  1  0  0  0  0
 32 31  1  0  0  0  0
 32 33  1  1  0  0  0
 32 34  1  0  0  0  0
 34 35  1  1  0  0  0
 34 36  1  0  0  0  0
 36 37  1  0  0  0  0
 31 37  1  6  0  0  0
 37 38  1  0  0  0  0
 38 39  2  0  0  0  0
 40 38  1  0  0  0  0
 40 41  1  6  0  0  0
 41 42  1  0  0  0  0
 41 43  1  1  0  0  0
 40 44  1  0  0  0  0
 44 45  1  0  0  0  0
 45 46  2  0  0  0  0
 47 45  1  0  0  0  0
 48 47  1  0  0  0  0
 48 49  1  6  0  0  0
 48 50  1  0  0  0  0
 50 51  1  6  0  0  0
 50 52  1  0  0  0  0
 52 53  4  0  0  0  0
 53 54  4  0  0  0  0
 54 55  4  0  0  0  0
 55 56  1  0  0  0  0
 55 57  4  0  0  0  0
 57 58  4  0  0  0  0
 52 58  4  0  0  0  0
 47 59  1  6  0  0  0
 59 60  1  0  0  0  0
 60 61  2  0  0  0  0
 62 60  1  0  0  0  0
 62 63  1  0  0  0  0
 64 63  1  0  0  0  0
 64 65  1  1  0  0  0
 64 66  1  0  0  0  0
 66 67  1  0  0  0  0
 62 67  1  6  0  0  0
 67 68  1  0  0  0  0
 68 69  2  0  0  0  0
 70 68  1  0  0  0  0
 70 71  1  6  0  0  0
 71 72  1  0  0  0  0
 71 73  1  6  0  0  0
 70 74  1  0  0  0  0
 74 75  1  0  0  0  0
 22 75  1  0  0  0  0
 75 76  2  0  0  0  0
 18 77  4  0  0  0  0
 77 78  4  0  0  0  0
 15 78  4  0  0  0  0
 14 79  4  0  0  0  0
 79 80  4  0  0  0  0
 11 80  4  0  0  0  0
 10 81  4  0  0  0  0
 81 82  4  0  0  0  0
  7 82  4  0  0  0  0
M  END
>  <CdId>
200

>  <Mol Weight>
1140.254

>  <Formula>
C58H73N7O17

>  <Molecule ChEMBL ID>
CHEMBL264241

>  <Molecule Name>
ANIDULAFUNGIN

>  <Molecule Max Phase>
4

>  <Molecular Weight>
1140.25

>  <#RO5 Violations>
None

>  <AlogP>
None

>  <Compound Key>
Anidulafungin

>  <Standard Type>
IC50

>  <Standard Relation>
'>'

>  <Standard Value>
17500.0

>  <Standard Units>
nM

$$$$

  Mrv2114 03112311372D          

 44 49  0  0  0  0            999 V2000
    3.3523    3.5854    0.0000 C   0  0  0  0  0  0  0  0  0  0  0  0
    4.0668    3.1729    0.0000 C   0  0  0  0  0  0  0  0  0  0  0  0
    4.7812    3.5854    0.0000 C   0  0  0  0  0  0  0  0  0  0  0  0
    4.7812    4.4104    0.0000 N   0  0  0  0  0  0  0  0  0  0  0  0
    5.4957    4.8229    0.0000 C   0  0  0  0  0  0  0  0  0  0  0  0
    6.2102    4.4104    0.0000 O   0  0  0  0  0  0  0  0  0  0  0  0
    5.4957    5.6479    0.0000 C   0  0  0  0  0  0  0  0  0  0  0  0
    4.7812    6.0604    0.0000 C   0  0  0  0  0  0  0  0  0  0  0  0
    4.7812    6.8854    0.0000 C   0  0  0  0  0  0  0  0  0  0  0  0
    5.4957    7.2979    0.0000 C   0  0  0  0  0  0  0  0  0  0  0  0
    5.4957    8.1229    0.0000 C   0  0  0  0  0  0  0  0  0  0  0  0
    5.4957    8.9479    0.0000 C   0  0  0  0  0  0  0  0  0  0  0  0
    4.6707    8.1229    0.0000 C   0  0  0  0  0  0  0  0  0  0  0  0
    6.3207    8.1229    0.0000 C   0  0  0  0  0  0  0  0  0  0  0  0
    6.2102    6.8854    0.0000 C   0  0  0  0  0  0  0  0  0  0  0  0
    6.2102    6.0604    0.0000 C   0  0  0  0  0  0  0  0  0  0  0  0
    5.4957    3.1729    0.0000 C   0  0  0  0  0  0  0  0  0  0  0  0
    5.4957    2.3479    0.0000 C   0  0  0  0  0  0  0  0  0  0  0  0
    4.7812    1.9354    0.0000 C   0  0  0  0  0  0  0  0  0  0  0  0
    4.0668    2.3479    0.0000 C   0  0  0  0  0  0  0  0  0  0  0  0
    3.3523    1.9354    0.0000 C   0  0  0  0  0  0  0  0  0  0  0  0
    3.3523    1.1104    0.0000 N   0  0  0  0  0  0  0  0  0  0  0  0
    2.6378    0.6979    0.0000 C   0  0  0  0  0  0  0  0  0  0  0  0
    2.6378   -0.1271    0.0000 N   0  0  0  0  0  0  0  0  0  0  0  0
    1.9233   -0.5396    0.0000 C   0  0  0  0  0  0  0  0  0  0  0  0
    1.9233   -1.3646    0.0000 C   0  0  0  0  0  0  0  0  0  0  0  0
    1.2089   -1.7771    0.0000 C   0  0  0  0  0  0  0  0  0  0  0  0
    0.4944   -1.3646    0.0000 C   0  0  0  0  0  0  0  0  0  0  0  0
   -0.2201   -1.7771    0.0000 C   0  0  0  0  0  0  0  0  0  0  0  0
   -0.2201   -2.6021    0.0000 O   0  0  0  0  0  0  0  0  0  0  0  0
   -0.9345   -1.3646    0.0000 N   0  0  0  0  0  0  0  0  0  0  0  0
   -1.6490   -1.7771    0.0000 C   0  0  0  0  0  0  0  0  0  0  0  0
   -2.3635   -1.3646    0.0000 C   0  0  0  0  0  0  0  0  0  0  0  0
   -2.3635   -0.5396    0.0000 O   0  0  0  0  0  0  0  0  0  0  0  0
   -1.6490   -0.1271    0.0000 C   0  0  0  0  0  0  0  0  0  0  0  0
   -0.9345   -0.5396    0.0000 C   0  0  0  0  0  0  0  0  0  0  0  0
    0.4944   -0.5396    0.0000 C   0  0  0  0  0  0  0  0  0  0  0  0
    1.2089   -0.1271    0.0000 C   0  0  0  0  0  0  0  0  0  0  0  0
    1.9233    1.1104    0.0000 C   0  0  0  0  0  0  0  0  0  0  0  0
    1.1387    0.8555    0.0000 N   0  0  0  0  0  0  0  0  0  0  0  0
    0.6538    1.5229    0.0000 C   0  0  0  0  0  0  0  0  0  0  0  0
    1.1387    2.1904    0.0000 N   0  0  0  0  0  0  0  0  0  0  0  0
    1.9233    1.9354    0.0000 C   0  0  0  0  0  0  0  0  0  0  0  0
    2.6378    2.3479    0.0000 N   0  0  0  0  0  0  0  0  0  0  0  0
  1  2  1  0  0  0  0
  2  3  4  0  0  0  0
  3  4  1  0  0  0  0
  4  5  1  0  0  0  0
  5  6  2  0  0  0  0
  5  7  1  0  0  0  0
  7  8  4  0  0  0  0
  8  9  4  0  0  0  0
  9 10  4  0  0  0  0
 10 11  1  0  0  0  0
 11 12  1  0  0  0  0
 11 13  1  0  0  0  0
 11 14  1  0  0  0  0
 10 15  4  0  0  0  0
 15 16  4  0  0  0  0
  7 16  4  0  0  0  0
  3 17  4  0  0  0  0
 17 18  4  0  0  0  0
 18 19  4  0  0  0  0
 19 20  4  0  0  0  0
  2 20  4  0  0  0  0
 20 21  1  0  0  0  0
 21 22  4  0  0  0  0
 22 23  4  0  0  0  0
 23 24  1  0  0  0  0
 24 25  1  0  0  0  0
 25 26  4  0  0  0  0
 26 27  4  0  0  0  0
 27 28  4  0  0  0  0
 28 29  1  0  0  0  0
 29 30  2  0  0  0  0
 29 31  1  0  0  0  0
 31 32  1  0  0  0  0
 32 33  1  0  0  0  0
 33 34  1  0  0  0  0
 34 35  1  0  0  0  0
 35 36  1  0  0  0  0
 31 36  1  0  0  0  0
 28 37  4  0  0  0  0
 37 38  4  0  0  0  0
 25 38  4  0  0  0  0
 23 39  4  0  0  0  0
 39 40  4  0  0  0  0
 40 41  4  0  0  0  0
 41 42  4  0  0  0  0
 42 43  4  0  0  0  0
 39 43  4  0  0  0  0
 43 44  4  0  0  0  0
 21 44  4  0  0  0  0
M  STY  1   1 DAT
M  SAL   1  1  42
M  SDT   1 MRV_IMPLICIT_H                                        
M  SDD   1     0.0000    0.0000    DR    ALL  0       0  
M  SED   1 IMPL_H1
M  END
>  <CdId>
201

>  <Mol Weight>
589.7

>  <Formula>
C34H35N7O3

>  <Molecule ChEMBL ID>
CHEMBL3263640

>  <Molecule Max Phase>
None

>  <Molecular Weight>
589.7

>  <#RO5 Violations>
2

>  <AlogP>
6.09

>  <Compound Key>
20

>  <Standard Type>
IC50

>  <Standard Relation>
'='

>  <Standard Value>
1400.0

>  <Standard Units>
nM

$$$$

  Mrv2114 03112311372D          

 16 17  0  0  0  0            999 V2000
    1.9275   -2.7346    0.0000 C   0  0  0  0  0  0  0  0  0  0  0  0
    2.6420   -3.1471    0.0000 C   0  0  0  0  0  0  0  0  0  0  0  0
    3.3565   -2.7346    0.0000 C   0  0  0  0  0  0  0  0  0  0  0  0
    4.0709   -3.1471    0.0000 C   0  0  0  0  0  0  0  0  0  0  0  0
    4.7854   -2.7346    0.0000 S   0  0  0  0  0  0  0  0  0  0  0  0
    5.4999   -3.1471    0.0000 C   0  0  0  0  0  0  0  0  0  0  0  0
    6.2536   -2.8116    0.0000 N   0  0  0  0  0  0  0  0  0  0  0  0
    6.8056   -3.4247    0.0000 C   0  0  0  0  0  0  0  0  0  0  0  0
    7.6306   -3.4247    0.0000 C   0  0  0  0  0  0  0  0  0  0  0  0
    8.0431   -4.1392    0.0000 C   0  0  0  0  0  0  0  0  0  0  0  0
    8.8681   -4.1392    0.0000 O   0  0  0  0  0  0  0  0  0  0  0  0
    9.2806   -3.4247    0.0000 C   0  0  0  0  0  0  0  0  0  0  0  0
    7.6306   -4.8536    0.0000 C   0  0  0  0  0  0  0  0  0  0  0  0
    6.8056   -4.8536    0.0000 C   0  0  0  0  0  0  0  0  0  0  0  0
    6.3931   -4.1392    0.0000 C   0  0  0  0  0  0  0  0  0  0  0  0
    5.5861   -3.9676    0.0000 N   0  0  0  0  0  0  0  0  0  0  0  0
  1  2  1  0  0  0  0
  2  3  1  0  0  0  0
  3  4  1  0  0  0  0
  4  5  1  0  0  0  0
  5  6  1  0  0  0  0
  6  7  4  0  0  0  0
  7  8  4  0  0  0  0
  8  9  4  0  0  0  0
  9 10  4  0  0  0  0
 10 11  1  0  0  0  0
 11 12  1  0  0  0  0
 10 13  4  0  0  0  0
 13 14  4  0  0  0  0
 14 15  4  0  0  0  0
  8 15  4  0  0  0  0
 15 16  4  0  0  0  0
  6 16  4  0  0  0  0
M  STY  1   1 DAT
M  SAL   1  1  16
M  SDT   1 MRV_IMPLICIT_H                                        
M  SDD   1     0.0000    0.0000    DR    ALL  0       0  
M  SED   1 IMPL_H1
M  END
>  <CdId>
202

>  <Mol Weight>
236.33

>  <Formula>
C12H16N2OS

>  <Molecule ChEMBL ID>
CHEMBL2018903

>  <Molecule Max Phase>
None

>  <Molecular Weight>
236.34

>  <#RO5 Violations>
0

>  <AlogP>
3.46

>  <Compound Key>
3

>  <Standard Type>
IC50

>  <Standard Relation>
'='

>  <Standard Value>
33700.0

>  <Standard Units>
nM

$$$$

  Mrv2114 03112311372D          

 24 25  0  0  0  0            999 V2000
    3.2704   -1.5395    0.0000 O   0  0  0  0  0  0  0  0  0  0  0  0
    2.8579   -0.8250    0.0000 S   0  0  0  0  0  0  0  0  0  0  0  0
    2.4454   -0.1105    0.0000 O   0  0  0  0  0  0  0  0  0  0  0  0
    2.1434   -1.2375    0.0000 N   0  0  0  0  0  0  0  0  0  0  0  0
    2.1434   -2.0625    0.0000 C   0  0  0  0  0  0  0  0  0  0  0  0
    2.8579   -2.4750    0.0000 C   0  0  0  0  0  0  0  0  0  0  0  0
    2.8579   -3.3000    0.0000 N   0  0  0  0  0  0  0  0  0  0  0  0
    2.1434   -3.7125    0.0000 C   0  0  0  0  0  0  0  0  0  0  0  0
    1.4289   -3.3000    0.0000 C   0  0  0  0  0  0  0  0  0  0  0  0
    0.7145   -3.7125    0.0000 C   0  0  0  0  0  0  0  0  0  0  0  0
    0.0000   -4.1250    0.0000 F   0  0  0  0  0  0  0  0  0  0  0  0
    1.1270   -4.4270    0.0000 F   0  0  0  0  0  0  0  0  0  0  0  0
    0.3020   -2.9980    0.0000 F   0  0  0  0  0  0  0  0  0  0  0  0
    1.4289   -2.4750    0.0000 C   0  0  0  0  0  0  0  0  0  0  0  0
    3.5724   -0.4125    0.0000 C   0  0  0  0  0  0  0  0  0  0  0  0
    3.5724    0.4125    0.0000 C   0  0  0  0  0  0  0  0  0  0  0  0
    4.2868    0.8250    0.0000 C   0  0  0  0  0  0  0  0  0  0  0  0
    5.0013    0.4125    0.0000 C   0  0  0  0  0  0  0  0  0  0  0  0
    5.0013   -0.4125    0.0000 C   0  0  0  0  0  0  0  0  0  0  0  0
    4.2868   -0.8250    0.0000 C   0  0  0  0  0  0  0  0  0  0  0  0
    4.2868   -1.6500    0.0000 C   0  0  0  0  0  0  0  0  0  0  0  0
    4.2868   -2.4750    0.0000 F   0  0  0  0  0  0  0  0  0  0  0  0
    3.5022   -1.9049    0.0000 F   0  0  0  0  0  0  0  0  0  0  0  0
    5.1118   -1.6500    0.0000 F   0  0  0  0  0  0  0  0  0  0  0  0
  1  2  2  0  0  0  0
  2  3  2  0  0  0  0
  2  4  1  0  0  0  0
  4  5  1  0  0  0  0
  5  6  4  0  0  0  0
  6  7  4  0  0  0  0
  7  8  4  0  0  0  0
  8  9  4  0  0  0  0
  9 10  1  0  0  0  0
 10 11  1  0  0  0  0
 10 12  1  0  0  0  0
 10 13  1  0  0  0  0
  9 14  4  0  0  0  0
  5 14  4  0  0  0  0
  2 15  1  0  0  0  0
 15 16  4  0  0  0  0
 16 17  4  0  0  0  0
 17 18  4  0  0  0  0
 18 19  4  0  0  0  0
 19 20  4  0  0  0  0
 15 20  4  0  0  0  0
 20 21  1  0  0  0  0
 21 22  1  0  0  0  0
 21 23  1  0  0  0  0
 21 24  1  0  0  0  0
M  END
>  <CdId>
203

>  <Mol Weight>
370.27

>  <Formula>
C13H8F6N2O2S

>  <Molecule ChEMBL ID>
CHEMBL3929544

>  <Molecule Max Phase>
None

>  <Molecular Weight>
370.27

>  <#RO5 Violations>
0

>  <AlogP>
3.92

>  <Compound Key>
47

>  <Standard Type>
IC50

>  <Standard Relation>
'>'

>  <Standard Value>
30000.0

>  <Standard Units>
nM

$$$$

  Mrv2114 03112311372D          

 24 27  0  0  0  0            999 V2000
   -1.6313   -3.6021    0.0000 C   0  0  0  0  0  0  0  0  0  0  0  0
   -1.0792   -2.9890    0.0000 C   0  0  0  0  0  0  0  0  0  0  0  0
   -1.2508   -2.1820    0.0000 N   0  0  0  0  0  0  0  0  0  0  0  0
   -0.5363   -1.7695    0.0000 N   0  0  0  0  0  0  0  0  0  0  0  0
    0.0768   -2.3215    0.0000 C   0  0  0  0  0  0  0  0  0  0  0  0
    0.8838   -2.1500    0.0000 C   0  0  0  0  0  0  0  0  0  0  0  0
    1.1387   -1.3654    0.0000 N   0  0  0  0  0  0  0  0  0  0  0  0
    0.6538   -0.6979    0.0000 C   0  0  0  0  0  0  0  0  0  0  0  0
    1.1387   -0.0305    0.0000 C   0  0  0  0  0  0  0  0  0  0  0  0
    1.9233   -0.2854    0.0000 C   0  0  0  0  0  0  0  0  0  0  0  0
    2.6378    0.1271    0.0000 N   0  0  0  0  0  0  0  0  0  0  0  0
    3.3523   -0.2854    0.0000 C   0  0  0  0  0  0  0  0  0  0  0  0
    3.3523   -1.1104    0.0000 C   0  0  0  0  0  0  0  0  0  0  0  0
    4.0668   -1.5229    0.0000 C   0  0  0  0  0  0  0  0  0  0  0  0
    4.7812   -1.1104    0.0000 C   0  0  0  0  0  0  0  0  0  0  0  0
    5.4957   -1.5229    0.0000 C   0  0  0  0  0  0  0  0  0  0  0  0
    5.4957   -2.3479    0.0000 C   0  0  0  0  0  0  0  0  0  0  0  0
    6.2102   -2.7604    0.0000 F   0  0  0  0  0  0  0  0  0  0  0  0
    4.7812   -2.7604    0.0000 C   0  0  0  0  0  0  0  0  0  0  0  0
    4.7812   -3.5854    0.0000 C   0  0  0  0  0  0  0  0  0  0  0  0
    4.0668   -2.3479    0.0000 C   0  0  0  0  0  0  0  0  0  0  0  0
    2.6378   -1.5229    0.0000 C   0  0  0  0  0  0  0  0  0  0  0  0
    1.9233   -1.1104    0.0000 C   0  0  0  0  0  0  0  0  0  0  0  0
   -0.2587   -3.0752    0.0000 O   0  0  0  0  0  0  0  0  0  0  0  0
  1  2  1  0  0  0  0
  2  3  4  0  0  0  0
  3  4  4  0  0  0  0
  4  5  4  0  0  0  0
  5  6  1  0  0  0  0
  6  7  1  0  0  0  0
  7  8  4  0  0  0  0
  8  9  4  0  0  0  0
  9 10  4  0  0  0  0
 10 11  4  0  0  0  0
 11 12  4  0  0  0  0
 12 13  4  0  0  0  0
 13 14  1  0  0  0  0
 14 15  4  0  0  0  0
 15 16  4  0  0  0  0
 16 17  4  0  0  0  0
 17 18  1  0  0  0  0
 17 19  4  0  0  0  0
 19 20  1  0  0  0  0
 19 21  4  0  0  0  0
 14 21  4  0  0  0  0
 13 22  4  0  0  0  0
 22 23  4  0  0  0  0
 10 23  4  0  0  0  0
  7 23  4  0  0  0  0
  5 24  4  0  0  0  0
  2 24  4  0  0  0  0
M  END
>  <CdId>
204

>  <Mol Weight>
322.343

>  <Formula>
C18H15FN4O

>  <Molecule ChEMBL ID>
CHEMBL4590530

>  <Molecule Max Phase>
None

>  <Molecular Weight>
322.34

>  <#RO5 Violations>
0

>  <AlogP>
3.89

>  <Compound Key>
11

>  <Standard Type>
IC50

>  <Standard Relation>
'>'

>  <Standard Value>
10000.0

>  <Standard Units>
nM

$$$$

  Mrv2114 03112311372D          

 25 27  0  0  0  0            999 V2000
   -0.9851   -3.2777    0.0000 C   0  0  0  0  0  0  0  0  0  0  0  0
   -0.1781   -3.1062    0.0000 N   0  0  0  0  0  0  0  0  0  0  0  0
    0.3739   -3.7192    0.0000 C   0  0  0  0  0  0  0  0  0  0  0  0
    0.0768   -2.3215    0.0000 C   0  0  0  0  0  0  0  0  0  0  0  0
   -0.4752   -1.7084    0.0000 O   0  0  0  0  0  0  0  0  0  0  0  0
    0.8838   -2.1500    0.0000 C   0  0  0  0  0  0  0  0  0  0  0  0
    1.1387   -1.3654    0.0000 N   0  0  0  0  0  0  0  0  0  0  0  0
    0.6538   -0.6979    0.0000 C   0  0  0  0  0  0  0  0  0  0  0  0
    1.1387   -0.0305    0.0000 C   0  0  0  0  0  0  0  0  0  0  0  0
    1.9233   -0.2854    0.0000 C   0  0  0  0  0  0  0  0  0  0  0  0
    2.6378    0.1271    0.0000 N   0  0  0  0  0  0  0  0  0  0  0  0
    3.3523   -0.2854    0.0000 C   0  0  0  0  0  0  0  0  0  0  0  0
    3.3523   -1.1104    0.0000 C   0  0  0  0  0  0  0  0  0  0  0  0
    4.0668   -1.5229    0.0000 C   0  0  0  0  0  0  0  0  0  0  0  0
    4.7812   -1.1104    0.0000 C   0  0  0  0  0  0  0  0  0  0  0  0
    5.4957   -1.5229    0.0000 C   0  0  0  0  0  0  0  0  0  0  0  0
    5.4957   -2.3479    0.0000 C   0  0  0  0  0  0  0  0  0  0  0  0
    4.7812   -2.7604    0.0000 C   0  0  0  0  0  0  0  0  0  0  0  0
    4.7812   -3.5854    0.0000 C   0  0  0  0  0  0  0  0  0  0  0  0
    4.7812   -4.4104    0.0000 F   0  0  0  0  0  0  0  0  0  0  0  0
    3.9562   -3.5854    0.0000 F   0  0  0  0  0  0  0  0  0  0  0  0
    5.6062   -3.5854    0.0000 F   0  0  0  0  0  0  0  0  0  0  0  0
    4.0668   -2.3479    0.0000 N   0  0  0  0  0  0  0  0  0  0  0  0
    2.6378   -1.5229    0.0000 C   0  0  0  0  0  0  0  0  0  0  0  0
    1.9233   -1.1104    0.0000 C   0  0  0  0  0  0  0  0  0  0  0  0
  1  2  1  0  0  0  0
  2  3  1  0  0  0  0
  2  4  1  0  0  0  0
  4  5  2  0  0  0  0
  4  6  1  0  0  0  0
  6  7  1  0  0  0  0
  7  8  4  0  0  0  0
  8  9  4  0  0  0  0
  9 10  4  0  0  0  0
 10 11  4  0  0  0  0
 11 12  4  0  0  0  0
 12 13  4  0  0  0  0
 13 14  1  0  0  0  0
 14 15  4  0  0  0  0
 15 16  4  0  0  0  0
 16 17  4  0  0  0  0
 17 18  4  0  0  0  0
 18 19  1  0  0  0  0
 19 20  1  0  0  0  0
 19 21  1  0  0  0  0
 19 22  1  0  0  0  0
 18 23  4  0  0  0  0
 14 23  4  0  0  0  0
 13 24  4  0  0  0  0
 24 25  4  0  0  0  0
 10 25  4  0  0  0  0
  7 25  4  0  0  0  0
M  END
>  <CdId>
205

>  <Mol Weight>
348.329

>  <Formula>
C17H15F3N4O

>  <Molecule ChEMBL ID>
CHEMBL4462073

>  <Molecule Max Phase>
None

>  <Molecular Weight>
348.33

>  <#RO5 Violations>
0

>  <AlogP>
3.21

>  <Compound Key>
21

>  <Standard Type>
IC50

>  <Standard Relation>
'>'

>  <Standard Value>
10000.0

>  <Standard Units>
nM

$$$$

  Mrv2114 03112311372D          

 27 30  0  0  0  0            999 V2000
    0.6288   -2.9346    0.0000 N   0  0  0  0  0  0  0  0  0  0  0  0
    0.8838   -2.1500    0.0000 C   0  0  0  0  0  0  0  0  0  0  0  0
    1.1387   -1.3654    0.0000 C   0  0  0  0  0  0  0  0  0  0  0  0
    0.6538   -0.6979    0.0000 C   0  0  0  0  0  0  0  0  0  0  0  0
    1.1387   -0.0305    0.0000 N   0  0  0  0  0  0  0  0  0  0  0  0
    1.9233   -0.2854    0.0000 C   0  0  0  0  0  0  0  0  0  0  0  0
    2.6378    0.1271    0.0000 C   0  0  0  0  0  0  0  0  0  0  0  0
    3.3523   -0.2854    0.0000 C   0  0  0  0  0  0  0  0  0  0  0  0
    3.3523   -1.1104    0.0000 C   0  0  0  0  0  0  0  0  0  0  0  0
    4.0668   -1.5229    0.0000 C   0  0  0  0  0  0  0  0  0  0  0  0
    4.8204   -1.1874    0.0000 C   0  0  0  0  0  0  0  0  0  0  0  0
    4.9920   -0.3804    0.0000 C   0  0  0  0  0  0  0  0  0  0  0  0
    4.3789    0.1716    0.0000 C   0  0  0  0  0  0  0  0  0  0  0  0
    4.5504    0.9786    0.0000 C   0  0  0  0  0  0  0  0  0  0  0  0
    5.3350    1.2335    0.0000 C   0  0  0  0  0  0  0  0  0  0  0  0
    5.5065    2.0405    0.0000 F   0  0  0  0  0  0  0  0  0  0  0  0
    5.9481    0.6815    0.0000 C   0  0  0  0  0  0  0  0  0  0  0  0
    6.7327    0.9364    0.0000 Cl  0  0  0  0  0  0  0  0  0  0  0  0
    5.7766   -0.1255    0.0000 C   0  0  0  0  0  0  0  0  0  0  0  0
    5.3725   -1.8005    0.0000 N   0  0  0  0  0  0  0  0  0  0  0  0
    4.9600   -2.5150    0.0000 C   0  0  0  0  0  0  0  0  0  0  0  0
    4.1530   -2.3434    0.0000 N   0  0  0  0  0  0  0  0  0  0  0  0
    3.5399   -2.8955    0.0000 C   0  0  0  0  0  0  0  0  0  0  0  0
    3.7114   -3.7024    0.0000 C   0  0  0  0  0  0  0  0  0  0  0  0
    3.0983   -4.2545    0.0000 O   0  0  0  0  0  0  0  0  0  0  0  0
    2.6378   -1.5229    0.0000 N   0  0  0  0  0  0  0  0  0  0  0  0
    1.9233   -1.1104    0.0000 N   0  0  0  0  0  0  0  0  0  0  0  0
  1  2  3  0  0  0  0
  2  3  1  0  0  0  0
  3  4  4  0  0  0  0
  4  5  4  0  0  0  0
  5  6  4  0  0  0  0
  6  7  4  0  0  0  0
  7  8  4  0  0  0  0
  8  9  4  0  0  0  0
  9 10  1  0  0  0  0
 10 11  4  0  0  0  0
 11 12  1  0  0  0  0
 12 13  4  0  0  0  0
 13 14  4  0  0  0  0
 14 15  4  0  0  0  0
 15 16  1  0  0  0  0
 15 17  4  0  0  0  0
 17 18  1  0  0  0  0
 17 19  4  0  0  0  0
 12 19  4  0  0  0  0
 11 20  4  0  0  0  0
 20 21  4  0  0  0  0
 21 22  4  0  0  0  0
 10 22  4  0  0  0  0
 22 23  1  0  0  0  0
 23 24  1  0  0  0  0
 24 25  1  0  0  0  0
  9 26  4  0  0  0  0
 26 27  4  0  0  0  0
  3 27  4  0  0  0  0
  6 27  4  0  0  0  0
M  END
>  <CdId>
206

>  <Mol Weight>
382.78

>  <Formula>
C18H12ClFN6O

>  <Molecule ChEMBL ID>
CHEMBL4514379

>  <Molecule Max Phase>
None

>  <Molecular Weight>
382.79

>  <#RO5 Violations>
0

>  <AlogP>
2.92

>  <Compound Key>
10; BMS-986260

>  <Standard Type>
IC50

>  <Standard Relation>
'>'

>  <Standard Value>
20000.0

>  <Standard Units>
nM

$$$$

  Mrv2114 03112311372D          

 27 29  0  0  1  0            999 V2000
   -4.3974   -0.4125    0.0000 C   0  0  0  0  0  0  0  0  0  0  0  0
   -3.5724   -0.4125    0.0000 C   0  0  0  0  0  0  0  0  0  0  0  0
   -3.1599    0.3020    0.0000 C   0  0  0  0  0  0  0  0  0  0  0  0
   -2.3349    0.3020    0.0000 C   0  0  1  0  0  0  0  0  0  0  0  0
   -1.9224   -0.4125    0.0000 C   0  0  0  0  0  0  0  0  0  0  0  0
   -1.0974   -0.4125    0.0000 C   0  0  0  0  0  0  0  0  0  0  0  0
   -0.6849   -1.1270    0.0000 O   0  0  0  0  0  0  0  0  0  0  0  0
   -1.9224    1.0164    0.0000 N   0  0  0  0  0  0  0  0  0  0  0  0
   -1.0974    1.0164    0.0000 C   0  0  0  0  0  0  0  0  0  0  0  0
   -0.6849    0.3020    0.0000 N   0  0  0  0  0  0  0  0  0  0  0  0
    0.1401    0.3020    0.0000 C   0  0  0  0  0  0  0  0  0  0  0  0
    0.5526   -0.4125    0.0000 N   0  0  0  0  0  0  0  0  0  0  0  0
    0.5526    1.0164    0.0000 N   0  0  0  0  0  0  0  0  0  0  0  0
    0.1401    1.7309    0.0000 C   0  0  0  0  0  0  0  0  0  0  0  0
   -0.6849    1.7309    0.0000 C   0  0  0  0  0  0  0  0  0  0  0  0
   -1.0974    2.4454    0.0000 C   0  0  0  0  0  0  0  0  0  0  0  0
   -0.6849    3.1599    0.0000 N   0  0  0  0  0  0  0  0  0  0  0  0
   -1.0974    3.8743    0.0000 C   0  0  0  0  0  0  0  0  0  0  0  0
   -1.9224    3.8743    0.0000 O   0  0  0  0  0  0  0  0  0  0  0  0
   -0.6849    4.5888    0.0000 C   0  0  0  0  0  0  0  0  0  0  0  0
   -1.0204    5.3425    0.0000 C   0  0  0  0  0  0  0  0  0  0  0  0
   -0.4073    5.8945    0.0000 S   0  0  0  0  0  0  0  0  0  0  0  0
    0.3072    5.4820    0.0000 C   0  0  0  0  0  0  0  0  0  0  0  0
    1.0608    5.8176    0.0000 C   0  0  0  0  0  0  0  0  0  0  0  0
    0.1356    4.6750    0.0000 N   0  0  0  0  0  0  0  0  0  0  0  0
    0.1401    3.1599    0.0000 C   0  0  0  0  0  0  0  0  0  0  0  0
    0.5526    2.4454    0.0000 C   0  0  0  0  0  0  0  0  0  0  0  0
  1  2  1  0  0  0  0
  2  3  1  0  0  0  0
  4  3  1  0  0  0  0
  4  5  1  0  0  0  0
  5  6  1  0  0  0  0
  6  7  1  0  0  0  0
  4  8  1  6  0  0  0
  8  9  1  0  0  0  0
  9 10  4  0  0  0  0
 10 11  4  0  0  0  0
 11 12  1  0  0  0  0
 11 13  4  0  0  0  0
 13 14  4  0  0  0  0
 14 15  4  0  0  0  0
  9 15  4  0  0  0  0
 15 16  1  0  0  0  0
 16 17  1  0  0  0  0
 17 18  1  0  0  0  0
 18 19  2  0  0  0  0
 18 20  1  0  0  0  0
 20 21  4  0  0  0  0
 21 22  4  0  0  0  0
 22 23  4  0  0  0  0
 23 24  1  0  0  0  0
 23 25  4  0  0  0  0
 20 25  4  0  0  0  0
 17 26  1  0  0  0  0
 26 27  1  0  0  0  0
 14 27  1  0  0  0  0
M  END
>  <CdId>
207

>  <Mol Weight>
390.51

>  <Formula>
C18H26N6O2S

>  <Molecule ChEMBL ID>
CHEMBL4276988

>  <Molecule Max Phase>
None

>  <Molecular Weight>
390.51

>  <#RO5 Violations>
0

>  <AlogP>
1.99

>  <Compound Key>
52a1

>  <Standard Type>
IC50

>  <Standard Relation>
'>'

>  <Standard Value>
10000.0

>  <Standard Units>
nM

$$$$

  Mrv2114 03112311372D          

 21 22  0  0  0  0            999 V2000
    1.4289    0.0000    0.0000 C   0  0  0  0  0  0  0  0  0  0  0  0
    0.7145   -0.4125    0.0000 O   0  0  0  0  0  0  0  0  0  0  0  0
    0.7145   -1.2375    0.0000 C   0  0  0  0  0  0  0  0  0  0  0  0
    0.0000   -1.6500    0.0000 C   0  0  0  0  0  0  0  0  0  0  0  0
    0.0000   -2.4750    0.0000 C   0  0  0  0  0  0  0  0  0  0  0  0
    0.7145   -2.8875    0.0000 C   0  0  0  0  0  0  0  0  0  0  0  0
    0.7145   -3.7125    0.0000 Cl  0  0  0  0  0  0  0  0  0  0  0  0
    1.4289   -2.4750    0.0000 C   0  0  0  0  0  0  0  0  0  0  0  0
    1.4289   -1.6500    0.0000 C   0  0  0  0  0  0  0  0  0  0  0  0
    2.1434   -1.2375    0.0000 C   0  0  0  0  0  0  0  0  0  0  0  0
    2.1434   -0.4125    0.0000 C   0  0  0  0  0  0  0  0  0  0  0  0
    2.8579    0.0000    0.0000 C   0  0  0  0  0  0  0  0  0  0  0  0
    2.8579    0.8250    0.0000 O   0  0  0  0  0  0  0  0  0  0  0  0
    3.5724   -0.4125    0.0000 N   0  0  0  0  0  0  0  0  0  0  0  0
    3.5724   -1.2375    0.0000 C   0  0  0  0  0  0  0  0  0  0  0  0
    4.2868   -1.6500    0.0000 S   0  0  0  0  0  0  0  0  0  0  0  0
    2.8579   -1.6500    0.0000 N   0  0  0  0  0  0  0  0  0  0  0  0
    2.8579   -2.4750    0.0000 C   0  0  0  0  0  0  0  0  0  0  0  0
    3.5724   -2.8875    0.0000 C   0  0  0  0  0  0  0  0  0  0  0  0
    4.2868   -2.4750    0.0000 N   0  0  0  0  0  0  0  0  0  0  0  0
    3.5724   -3.7125    0.0000 O   0  0  0  0  0  0  0  0  0  0  0  0
  1  2  1  0  0  0  0
  2  3  1  0  0  0  0
  3  4  4  0  0  0  0
  4  5  4  0  0  0  0
  5  6  4  0  0  0  0
  6  7  1  0  0  0  0
  6  8  4  0  0  0  0
  8  9  4  0  0  0  0
  3  9  4  0  0  0  0
  9 10  1  0  0  0  0
 10 11  4  0  0  0  0
 11 12  4  0  0  0  0
 12 13  2  0  0  0  0
 12 14  4  0  0  0  0
 14 15  4  0  0  0  0
 15 16  2  0  0  0  0
 15 17  4  0  0  0  0
 10 17  4  0  0  0  0
 17 18  1  0  0  0  0
 18 19  1  0  0  0  0
 19 20  1  0  0  0  0
 19 21  2  0  0  0  0
M  STY  1   1 DAT
M  SAL   1  1  14
M  SDT   1 MRV_IMPLICIT_H                                        
M  SDD   1     0.0000    0.0000    DR    ALL  0       0  
M  SED   1 IMPL_H1
M  END
>  <CdId>
208

>  <Mol Weight>
325.77

>  <Formula>
C13H12ClN3O3S

>  <Molecule ChEMBL ID>
CHEMBL3633460

>  <Molecule Name>
PF-06282999

>  <Molecule Max Phase>
1

>  <Molecular Weight>
325.78

>  <#RO5 Violations>
0

>  <AlogP>
1.72

>  <Compound Key>
8; PF-06282999

>  <Standard Type>
IC50

>  <Standard Relation>
'>'

>  <Standard Value>
100000.0

>  <Standard Units>
nM

$$$$

  Mrv2114 03112311372D          

 20 20  0  0  0  0            999 V2000
    2.1434   -5.3625    0.0000 C   0  0  0  0  0  0  0  0  0  0  0  0
    2.8579   -4.9500    0.0000 C   0  0  0  0  0  0  0  0  0  0  0  0
    3.5724   -5.3625    0.0000 C   0  0  0  0  0  0  0  0  0  0  0  0
    4.2868   -4.9500    0.0000 C   0  0  0  0  0  0  0  0  0  0  0  0
    5.0013   -5.3625    0.0000 C   0  0  0  0  0  0  0  0  0  0  0  0
    5.7158   -4.9500    0.0000 C   0  0  0  0  0  0  0  0  0  0  0  0
    6.4302   -5.3625    0.0000 C   0  0  0  0  0  0  0  0  0  0  0  0
    7.1447   -4.9500    0.0000 C   0  0  0  0  0  0  0  0  0  0  0  0
    7.1447   -4.1250    0.0000 O   0  0  0  0  0  0  0  0  0  0  0  0
    7.8592   -5.3625    0.0000 C   0  0  0  0  0  0  0  0  0  0  0  0
    8.5737   -4.9500    0.0000 C   0  0  0  0  0  0  0  0  0  0  0  0
    9.2881   -5.3625    0.0000 C   0  0  0  0  0  0  0  0  0  0  0  0
   10.0026   -4.9500    0.0000 C   0  0  0  0  0  0  0  0  0  0  0  0
   10.7171   -5.3625    0.0000 C   0  0  0  0  0  0  0  0  0  0  0  0
   10.7171   -6.1875    0.0000 C   0  0  0  0  0  0  0  0  0  0  0  0
   11.4315   -6.6000    0.0000 O   0  0  0  0  0  0  0  0  0  0  0  0
   10.0026   -6.6000    0.0000 C   0  0  0  0  0  0  0  0  0  0  0  0
   10.0026   -7.4250    0.0000 O   0  0  0  0  0  0  0  0  0  0  0  0
    9.2881   -7.8375    0.0000 C   0  0  0  0  0  0  0  0  0  0  0  0
    9.2881   -6.1875    0.0000 C   0  0  0  0  0  0  0  0  0  0  0  0
  1  2  1  0  0  0  0
  2  3  1  0  0  0  0
  3  4  1  0  0  0  0
  4  5  1  0  0  0  0
  5  6  1  0  0  0  0
  6  7  2  0  0  0  0
  7  8  1  0  0  0  0
  8  9  2  0  0  0  0
  8 10  1  0  0  0  0
 10 11  1  0  0  0  0
 11 12  1  0  0  0  0
 12 13  4  0  0  0  0
 13 14  4  0  0  0  0
 14 15  4  0  0  0  0
 15 16  1  0  0  0  0
 15 17  4  0  0  0  0
 17 18  1  0  0  0  0
 18 19  1  0  0  0  0
 17 20  4  0  0  0  0
 12 20  4  0  0  0  0
M  END
>  <CdId>
209

>  <Mol Weight>
276.376

>  <Formula>
C17H24O3

>  <Molecule ChEMBL ID>
CHEMBL25948

>  <Molecule Name>
SHOGAOL

>  <Molecule Max Phase>
None

>  <Molecular Weight>
276.38

>  <#RO5 Violations>
0

>  <AlogP>
4.04

>  <Compound Key>
6-Shogaol

>  <Standard Type>
IC50

>  <Standard Relation>
'='

>  <Standard Value>
2900.0

>  <Standard Units>
nM

$$$$

  Mrv2114 03112311372D          

 36 40  0  0  1  0            999 V2000
    3.3523    4.4104    0.0000 C   0  0  0  0  0  0  0  0  0  0  0  0
    4.0668    4.8229    0.0000 C   0  0  0  0  0  0  0  0  0  0  0  0
    4.0668    5.6479    0.0000 C   0  0  0  0  0  0  0  0  0  0  0  0
    4.7812    6.0604    0.0000 C   0  0  0  0  0  0  0  0  0  0  0  0
    4.7812    6.8854    0.0000 C   0  0  0  0  0  0  0  0  0  0  0  0
    5.4957    7.2979    0.0000 C   0  0  0  0  0  0  0  0  0  0  0  0
    5.4957    8.1229    0.0000 C   0  0  0  0  0  0  0  0  0  0  0  0
    4.8283    8.6079    0.0000 N   0  0  0  0  0  0  0  0  0  0  0  0
    5.0832    9.3925    0.0000 C   0  0  0  0  0  0  0  0  0  0  0  0
    4.6707   10.1070    0.0000 O   0  0  0  0  0  0  0  0  0  0  0  0
    5.0832   10.8214    0.0000 C   0  0  0  0  0  0  0  0  0  0  0  0
    5.9082   10.8214    0.0000 C   0  0  0  0  0  0  0  0  0  0  0  0
    6.3207   10.1070    0.0000 C   0  0  0  0  0  0  0  0  0  0  0  0
    5.9082    9.3925    0.0000 C   0  0  0  0  0  0  0  0  0  0  0  0
    6.1631    8.6079    0.0000 S   0  0  0  0  0  0  0  0  0  0  0  0
    6.2102    6.8854    0.0000 C   0  0  0  0  0  0  0  0  0  0  0  0
    6.2102    6.0604    0.0000 C   0  0  0  0  0  0  0  0  0  0  0  0
    5.4957    5.6479    0.0000 C   0  0  0  0  0  0  0  0  0  0  0  0
    5.4957    4.8229    0.0000 O   0  0  0  0  0  0  0  0  0  0  0  0
    4.7812    4.4104    0.0000 C   0  0  0  0  0  0  0  0  0  0  0  0
    4.7812    3.5854    0.0000 C   0  0  0  0  0  0  0  0  0  0  0  0
    4.0668    3.1729    0.0000 C   0  0  0  0  0  0  0  0  0  0  0  0
    4.0668    2.3479    0.0000 O   0  0  0  0  0  0  0  0  0  0  0  0
    3.3523    1.9354    0.0000 C   0  0  0  0  0  0  0  0  0  0  0  0
    3.3523    1.1104    0.0000 C   0  0  0  0  0  0  0  0  0  0  0  0
    2.6378    0.6979    0.0000 C   0  0  0  0  0  0  0  0  0  0  0  0
    1.9233    1.1104    0.0000 C   0  0  0  0  0  0  0  0  0  0  0  0
    1.9233    1.9354    0.0000 C   0  0  0  0  0  0  0  0  0  0  0  0
    2.6378    2.3479    0.0000 C   0  0  0  0  0  0  0  0  0  0  0  0
    1.1387    2.1904    0.0000 C   0  0  0  0  0  0  0  0  0  0  0  0
    0.6538    1.5229    0.0000 C   0  0  0  0  0  0  0  0  0  0  0  0
    1.1387    0.8555    0.0000 C   0  0  1  0  0  0  0  0  0  0  0  0
    0.8838    0.0709    0.0000 C   0  0  0  0  0  0  0  0  0  0  0  0
    0.0768   -0.1006    0.0000 C   0  0  0  0  0  0  0  0  0  0  0  0
   -0.1781   -0.8853    0.0000 O   0  0  0  0  0  0  0  0  0  0  0  0
   -0.4752    0.5124    0.0000 O   0  0  0  0  0  0  0  0  0  0  0  0
  1  2  1  0  0  0  0
  2  3  1  0  0  0  0
  3  4  1  0  0  0  0
  4  5  4  0  0  0  0
  5  6  4  0  0  0  0
  6  7  1  0  0  0  0
  7  8  2  0  0  0  0
  8  9  1  0  0  0  0
  9 10  1  0  0  0  0
 10 11  1  0  0  0  0
 11 12  1  0  0  0  0
 12 13  1  0  0  0  0
 13 14  1  0  0  0  0
  9 14  1  0  0  0  0
 14 15  1  0  0  0  0
  7 15  1  0  0  0  0
  6 16  4  0  0  0  0
 16 17  4  0  0  0  0
 17 18  4  0  0  0  0
  4 18  4  0  0  0  0
 18 19  1  0  0  0  0
 19 20  1  0  0  0  0
 20 21  1  0  0  0  0
 21 22  1  0  0  0  0
 22 23  1  0  0  0  0
 23 24  1  0  0  0  0
 24 25  4  0  0  0  0
 25 26  4  0  0  0  0
 26 27  4  0  0  0  0
 27 28  4  0  0  0  0
 28 29  4  0  0  0  0
 24 29  4  0  0  0  0
 28 30  1  0  0  0  0
 30 31  1  0  0  0  0
 32 31  1  0  0  0  0
 32 27  1  0  0  0  0
 32 33  1  6  0  0  0
 33 34  1  0  0  0  0
 34 35  2  0  0  0  0
 34 36  1  0  0  0  0
M  END
>  <CdId>
210

>  <Mol Weight>
509.66

>  <Formula>
C29H35NO5S

>  <Molecule ChEMBL ID>
CHEMBL221044

>  <Molecule Max Phase>
None

>  <Molecular Weight>
509.67

>  <#RO5 Violations>
2

>  <AlogP>
5.99

>  <Compound Key>
34r

>  <Standard Type>
IC50

>  <Standard Relation>
'>'

>  <Standard Value>
10000.0

>  <Standard Units>
nM

$$$$

  Mrv2114 03112311372D          

 20 22  0  0  0  0            999 V2000
    5.4957    2.3479    0.0000 C   0  0  0  0  0  0  0  0  0  0  0  0
    4.7812    1.9354    0.0000 C   0  0  0  0  0  0  0  0  0  0  0  0
    4.0668    2.3479    0.0000 O   0  0  0  0  0  0  0  0  0  0  0  0
    3.3523    1.9354    0.0000 C   0  0  0  0  0  0  0  0  0  0  0  0
    3.3523    1.1104    0.0000 C   0  0  0  0  0  0  0  0  0  0  0  0
    2.6378    0.6979    0.0000 C   0  0  0  0  0  0  0  0  0  0  0  0
    1.9233    1.1104    0.0000 C   0  0  0  0  0  0  0  0  0  0  0  0
    1.1387    0.8555    0.0000 N   0  0  0  0  0  0  0  0  0  0  0  0
    0.6538    1.5229    0.0000 C   0  0  0  0  0  0  0  0  0  0  0  0
   -0.1712    1.5229    0.0000 S   0  0  0  0  0  0  0  0  0  0  0  0
   -0.5837    0.8085    0.0000 C   0  0  0  0  0  0  0  0  0  0  0  0
   -1.4087    0.8085    0.0000 C   0  0  0  0  0  0  0  0  0  0  0  0
   -1.8212    0.0940    0.0000 C   0  0  0  0  0  0  0  0  0  0  0  0
   -2.6462    0.0940    0.0000 C   0  0  0  0  0  0  0  0  0  0  0  0
   -3.0587    0.8085    0.0000 C   0  0  0  0  0  0  0  0  0  0  0  0
   -2.6462    1.5229    0.0000 C   0  0  0  0  0  0  0  0  0  0  0  0
   -1.8212    1.5229    0.0000 N   0  0  0  0  0  0  0  0  0  0  0  0
    1.1387    2.1904    0.0000 N   0  0  0  0  0  0  0  0  0  0  0  0
    1.9233    1.9354    0.0000 C   0  0  0  0  0  0  0  0  0  0  0  0
    2.6378    2.3479    0.0000 C   0  0  0  0  0  0  0  0  0  0  0  0
  1  2  1  0  0  0  0
  2  3  1  0  0  0  0
  3  4  1  0  0  0  0
  4  5  4  0  0  0  0
  5  6  4  0  0  0  0
  6  7  4  0  0  0  0
  7  8  4  0  0  0  0
  8  9  4  0  0  0  0
  9 10  1  0  0  0  0
 10 11  1  0  0  0  0
 11 12  1  0  0  0  0
 12 13  4  0  0  0  0
 13 14  4  0  0  0  0
 14 15  4  0  0  0  0
 15 16  4  0  0  0  0
 16 17  4  0  0  0  0
 12 17  4  0  0  0  0
  9 18  4  0  0  0  0
 18 19  4  0  0  0  0
  7 19  4  0  0  0  0
 19 20  4  0  0  0  0
  4 20  4  0  0  0  0
M  STY  1   1 DAT
M  SAL   1  1   8
M  SDT   1 MRV_IMPLICIT_H                                        
M  SDD   1     0.0000    0.0000    DR    ALL  0       0  
M  SED   1 IMPL_H1
M  END
>  <CdId>
211

>  <Mol Weight>
285.37

>  <Formula>
C15H15N3OS

>  <Molecule ChEMBL ID>
CHEMBL2019023

>  <Molecule Max Phase>
None

>  <Molecular Weight>
285.37

>  <#RO5 Violations>
0

>  <AlogP>
3.65

>  <Compound Key>
28

>  <Standard Type>
IC50

>  <Standard Relation>
'>'

>  <Standard Value>
50000.0

>  <Standard Units>
nM

$$$$

  Mrv2114 03112311372D          

 28 30  0  0  0  0            999 V2000
   -5.5298   -5.7046    0.0000 C   0  0  0  0  0  0  0  0  0  0  0  0
   -5.2749   -4.9199    0.0000 C   0  0  0  0  0  0  0  0  0  0  0  0
   -5.8269   -4.3068    0.0000 C   0  0  0  0  0  0  0  0  0  0  0  0
   -4.4679   -4.7484    0.0000 S   0  0  0  0  0  0  0  0  0  0  0  0
   -4.2964   -5.5554    0.0000 O   0  0  0  0  0  0  0  0  0  0  0  0
   -4.6395   -3.9414    0.0000 O   0  0  0  0  0  0  0  0  0  0  0  0
   -3.6610   -4.5769    0.0000 N   0  0  0  0  0  0  0  0  0  0  0  0
   -3.4060   -3.7923    0.0000 C   0  0  0  0  0  0  0  0  0  0  0  0
   -2.5990   -3.6207    0.0000 C   0  0  1  0  0  0  0  0  0  0  0  0
   -2.3441   -2.8361    0.0000 C   0  0  0  0  0  0  0  0  0  0  0  0
   -1.5371   -2.6646    0.0000 C   0  0  0  0  0  0  0  0  0  0  0  0
   -0.9851   -3.2777    0.0000 C   0  0  2  0  0  0  0  0  0  0  0  0
   -0.1781   -3.1062    0.0000 N   0  0  0  0  0  0  0  0  0  0  0  0
    0.0768   -2.3215    0.0000 C   0  0  0  0  0  0  0  0  0  0  0  0
   -0.4752   -1.7084    0.0000 O   0  0  0  0  0  0  0  0  0  0  0  0
    0.8838   -2.1500    0.0000 C   0  0  0  0  0  0  0  0  0  0  0  0
    1.1387   -1.3654    0.0000 N   0  0  0  0  0  0  0  0  0  0  0  0
    0.6538   -0.6979    0.0000 C   0  0  0  0  0  0  0  0  0  0  0  0
    1.1387   -0.0305    0.0000 C   0  0  0  0  0  0  0  0  0  0  0  0
    1.9233   -0.2854    0.0000 C   0  0  0  0  0  0  0  0  0  0  0  0
    2.6378    0.1271    0.0000 C   0  0  0  0  0  0  0  0  0  0  0  0
    3.3523   -0.2854    0.0000 C   0  0  0  0  0  0  0  0  0  0  0  0
    4.0668    0.1271    0.0000 Cl  0  0  0  0  0  0  0  0  0  0  0  0
    3.3523   -1.1104    0.0000 C   0  0  0  0  0  0  0  0  0  0  0  0
    2.6378   -1.5229    0.0000 C   0  0  0  0  0  0  0  0  0  0  0  0
    1.9233   -1.1104    0.0000 C   0  0  0  0  0  0  0  0  0  0  0  0
   -1.2400   -4.0623    0.0000 C   0  0  0  0  0  0  0  0  0  0  0  0
   -2.0470   -4.2338    0.0000 C   0  0  0  0  0  0  0  0  0  0  0  0
  1  2  1  0  0  0  0
  2  3  1  0  0  0  0
  2  4  1  0  0  0  0
  4  5  2  0  0  0  0
  4  6  2  0  0  0  0
  4  7  1  0  0  0  0
  7  8  1  0  0  0  0
  9  8  1  1  0  0  0
  9 10  1  0  0  0  0
 10 11  1  0  0  0  0
 12 11  1  0  0  0  0
 12 13  1  6  0  0  0
 13 14  1  0  0  0  0
 14 15  2  0  0  0  0
 14 16  1  0  0  0  0
 16 17  1  0  0  0  0
 17 18  1  0  0  0  0
 18 19  1  0  0  0  0
 19 20  1  0  0  0  0
 20 21  4  0  0  0  0
 21 22  4  0  0  0  0
 22 23  1  0  0  0  0
 22 24  4  0  0  0  0
 24 25  4  0  0  0  0
 25 26  4  0  0  0  0
 20 26  4  0  0  0  0
 17 26  1  0  0  0  0
 12 27  1  0  0  0  0
 27 28  1  0  0  0  0
  9 28  1  0  0  0  0
M  END
>  <CdId>
212

>  <Mol Weight>
427.99

>  <Formula>
C20H30ClN3O3S

>  <Molecule ChEMBL ID>
CHEMBL2013012

>  <Molecule Max Phase>
None

>  <Molecular Weight>
428.0

>  <#RO5 Violations>
0

>  <AlogP>
2.71

>  <Compound Key>
10a

>  <Standard Type>
IC50

>  <Standard Relation>
'='

>  <Standard Value>
8200.0

>  <Standard Units>
nM

$$$$

  Mrv2114 03112311372D          

 24 28  0  0  1  0            999 V2000
    2.3740   -3.6960    0.0000 N   0  0  0  0  0  0  0  0  0  0  0  0
    1.5894   -3.9509    0.0000 C   0  0  0  0  0  0  0  0  0  0  0  0
    0.8048   -4.2059    0.0000 C   0  0  2  0  0  0  0  0  0  0  0  0
    0.5499   -4.9906    0.0000 C   0  0  0  0  0  0  0  0  0  0  0  0
   -0.2751   -4.9906    0.0000 C   0  0  2  0  0  0  0  0  0  0  0  0
   -1.0821   -4.8191    0.0000 C   0  0  0  0  0  0  0  0  0  0  0  0
   -0.5301   -4.2060    0.0000 C   0  0  2  0  0  0  0  0  0  0  0  0
    0.1373   -3.7210    0.0000 N   0  0  0  0  0  0  0  0  0  0  0  0
    0.1373   -2.8960    0.0000 C   0  0  0  0  0  0  0  0  0  0  0  0
   -0.5772   -2.4836    0.0000 O   0  0  0  0  0  0  0  0  0  0  0  0
    0.8517   -2.4835    0.0000 C   0  0  1  0  0  0  0  0  0  0  0  0
    1.5662   -2.8960    0.0000 N   0  0  0  0  0  0  0  0  0  0  0  0
    0.8517   -1.6585    0.0000 C   0  0  0  0  0  0  0  0  0  0  0  0
    0.1163   -2.0322    0.0000 C   0  0  0  0  0  0  0  0  0  0  0  0
    0.5657   -1.2419    0.0000 C   0  0  0  0  0  0  0  0  0  0  0  0
    0.5657   -0.4945    0.0000 C   0  0  0  0  0  0  0  0  0  0  0  0
    1.3012   -0.1208    0.0000 C   0  0  0  0  0  0  0  0  0  0  0  0
    1.3012    0.7042    0.0000 O   0  0  0  0  0  0  0  0  0  0  0  0
    2.0368   -0.4945    0.0000 C   0  0  0  0  0  0  0  0  0  0  0  0
    2.0368   -1.2419    0.0000 C   0  0  0  0  0  0  0  0  0  0  0  0
    2.8344   -1.4529    0.0000 O   0  0  0  0  0  0  0  0  0  0  0  0
    1.3012   -1.6156    0.0000 C   0  0  0  0  0  0  0  0  0  0  0  0
    1.5873   -2.0322    0.0000 C   0  0  0  0  0  0  0  0  0  0  0  0
    0.8517   -0.9111    0.0000 C   0  0  0  0  0  0  0  0  0  0  0  0
  1  2  3  0  0  0  0
  3  2  1  6  0  0  0
  3  4  1  0  0  0  0
  5  4  1  0  0  0  0
  5  6  1  6  0  0  0
  7  6  1  6  0  0  0
  5  7  1  0  0  0  0
  7  8  1  0  0  0  0
  3  8  1  0  0  0  0
  8  9  1  0  0  0  0
  9 10  2  0  0  0  0
 11  9  1  0  0  0  0
 11 12  1  6  0  0  0
 11 13  1  0  0  0  0
 13 14  1  0  0  0  0
 14 15  1  0  0  0  0
 17 24  1  0  0  0  0
 16 17  1  0  0  0  0
 17 18  1  0  0  0  0
 17 19  1  0  0  0  0
 13 23  1  0  0  0  0
 20 21  1  0  0  0  0
 20 22  1  0  0  0  0
 15 22  1  0  0  0  0
 20 23  1  0  0  0  0
 19 20  1  0  0  0  0
 15 16  1  0  0  0  0
 13 24  1  0  0  0  0
M  END
>  <CdId>
213

>  <Mol Weight>
331.416

>  <Formula>
C18H25N3O3

>  <Molecule ChEMBL ID>
CHEMBL3350936

>  <Molecule Max Phase>
None

>  <Molecular Weight>
331.42

>  <#RO5 Violations>
0

>  <AlogP>
0.27

>  <Compound Key>
M2

>  <Standard Type>
IC50

>  <Standard Relation>
'>'

>  <Standard Value>
200000.0

>  <Standard Units>
nM

$$$$

  Mrv2114 03112311372D          

 41 45  0  0  0  0            999 V2000
    0.7145    1.2375    0.0000 C   0  0  0  0  0  0  0  0  0  0  0  0
    0.0000    0.8250    0.0000 C   0  0  0  0  0  0  0  0  0  0  0  0
    0.0000    0.0000    0.0000 O   0  0  0  0  0  0  0  0  0  0  0  0
    0.7145   -0.4125    0.0000 C   0  0  0  0  0  0  0  0  0  0  0  0
    1.4289    0.0000    0.0000 C   0  0  0  0  0  0  0  0  0  0  0  0
    2.1434   -0.4125    0.0000 C   0  0  0  0  0  0  0  0  0  0  0  0
    2.8579    0.0000    0.0000 N   0  0  0  0  0  0  0  0  0  0  0  0
    3.5724   -0.4125    0.0000 C   0  0  0  0  0  0  0  0  0  0  0  0
    3.5724   -1.2375    0.0000 C   0  0  0  0  0  0  0  0  0  0  0  0
    4.2868   -1.6500    0.0000 C   0  0  0  0  0  0  0  0  0  0  0  0
    5.0013   -2.0625    0.0000 N   0  0  0  0  0  0  0  0  0  0  0  0
    2.8579   -1.6500    0.0000 C   0  0  0  0  0  0  0  0  0  0  0  0
    2.8579   -2.4750    0.0000 N   0  0  0  0  0  0  0  0  0  0  0  0
    3.5724   -2.8875    0.0000 C   0  0  0  0  0  0  0  0  0  0  0  0
    4.2868   -2.4750    0.0000 C   0  0  0  0  0  0  0  0  0  0  0  0
    5.0013   -2.8875    0.0000 C   0  0  0  0  0  0  0  0  0  0  0  0
    5.0013   -3.7125    0.0000 C   0  0  0  0  0  0  0  0  0  0  0  0
    5.7158   -4.1250    0.0000 O   0  0  0  0  0  0  0  0  0  0  0  0
    5.7158   -4.9500    0.0000 C   0  0  0  0  0  0  0  0  0  0  0  0
    6.4302   -5.3625    0.0000 C   0  0  0  0  0  0  0  0  0  0  0  0
    7.1447   -4.9500    0.0000 C   0  0  0  0  0  0  0  0  0  0  0  0
    7.8592   -5.3625    0.0000 C   0  0  0  0  0  0  0  0  0  0  0  0
    7.8592   -6.1875    0.0000 C   0  0  0  0  0  0  0  0  0  0  0  0
    7.1447   -6.6000    0.0000 C   0  0  0  0  0  0  0  0  0  0  0  0
    7.1447   -7.4250    0.0000 F   0  0  0  0  0  0  0  0  0  0  0  0
    6.4302   -6.1875    0.0000 C   0  0  0  0  0  0  0  0  0  0  0  0
    4.2868   -4.1250    0.0000 C   0  0  0  0  0  0  0  0  0  0  0  0
    4.2868   -4.9500    0.0000 Cl  0  0  0  0  0  0  0  0  0  0  0  0
    3.5724   -3.7125    0.0000 C   0  0  0  0  0  0  0  0  0  0  0  0
    2.1434   -1.2375    0.0000 C   0  0  0  0  0  0  0  0  0  0  0  0
    1.4289   -1.6500    0.0000 C   0  0  0  0  0  0  0  0  0  0  0  0
    0.7145   -1.2375    0.0000 C   0  0  0  0  0  0  0  0  0  0  0  0
    0.0000   -1.6500    0.0000 N   0  0  0  0  0  0  0  0  0  0  0  0
   -0.7145   -1.2375    0.0000 C   0  0  0  0  0  0  0  0  0  0  0  0
   -1.4289   -1.6500    0.0000 O   0  0  0  0  0  0  0  0  0  0  0  0
   -0.7145   -0.4125    0.0000 C   0  0  0  0  0  0  0  0  0  0  0  0
   -1.4289   -0.0000    0.0000 C   0  0  0  0  0  0  0  0  0  0  0  0
   -2.1826   -0.3356    0.0000 C   0  0  0  0  0  0  0  0  0  0  0  0
   -2.7346    0.2775    0.0000 C   0  0  0  0  0  0  0  0  0  0  0  0
   -2.3221    0.9920    0.0000 S   0  0  0  0  0  0  0  0  0  0  0  0
   -1.5152    0.8205    0.0000 S   0  0  0  0  0  0  0  0  0  0  0  0
  1  2  1  0  0  0  0
  2  3  1  0  0  0  0
  3  4  1  0  0  0  0
  4  5  4  0  0  0  0
  5  6  4  0  0  0  0
  6  7  4  0  0  0  0
  7  8  4  0  0  0  0
  8  9  4  0  0  0  0
  9 10  1  0  0  0  0
 10 11  3  0  0  0  0
  9 12  4  0  0  0  0
 12 13  1  0  0  0  0
 13 14  1  0  0  0  0
 14 15  4  0  0  0  0
 15 16  4  0  0  0  0
 16 17  4  0  0  0  0
 17 18  1  0  0  0  0
 18 19  1  0  0  0  0
 19 20  1  0  0  0  0
 20 21  4  0  0  0  0
 21 22  4  0  0  0  0
 22 23  4  0  0  0  0
 23 24  4  0  0  0  0
 24 25  1  0  0  0  0
 24 26  4  0  0  0  0
 20 26  4  0  0  0  0
 17 27  4  0  0  0  0
 27 28  1  0  0  0  0
 27 29  4  0  0  0  0
 14 29  4  0  0  0  0
 12 30  4  0  0  0  0
  6 30  4  0  0  0  0
 30 31  4  0  0  0  0
 31 32  4  0  0  0  0
  4 32  4  0  0  0  0
 32 33  1  0  0  0  0
 33 34  1  0  0  0  0
 34 35  2  0  0  0  0
 34 36  1  0  0  0  0
 36 37  1  0  0  0  0
 37 38  1  0  0  0  0
 38 39  1  0  0  0  0
 39 40  1  0  0  0  0
 40 41  1  0  0  0  0
 37 41  1  0  0  0  0
M  END
>  <CdId>
214

>  <Mol Weight>
609.13

>  <Formula>
C30H26ClFN4O3S2

>  <Molecule ChEMBL ID>
CHEMBL4457447

>  <Molecule Max Phase>
None

>  <Molecular Weight>
609.15

>  <#RO5 Violations>
2

>  <AlogP>
8.1

>  <Compound Key>
28; SAB46

>  <Standard Type>
IC50

>  <Standard Relation>
'>'

>  <Standard Value>
50000.0

>  <Standard Units>
nM

$$$$

  Mrv2114 03112311372D          

 29 32  0  0  1  0            999 V2000
    0.7145   -5.3625    0.0000 C   0  0  0  0  0  0  0  0  0  0  0  0
    1.4289   -4.9500    0.0000 C   0  0  1  0  0  0  0  0  0  0  0  0
    2.1434   -5.3625    0.0000 C   0  0  0  0  0  0  0  0  0  0  0  0
    2.8579   -4.9500    0.0000 O   0  0  0  0  0  0  0  0  0  0  0  0
    2.1434   -6.1875    0.0000 N   0  0  0  0  0  0  0  0  0  0  0  0
    2.8579   -6.6000    0.0000 C   0  0  0  0  0  0  0  0  0  0  0  0
    3.5724   -6.1875    0.0000 C   0  0  0  0  0  0  0  0  0  0  0  0
    4.2868   -6.6000    0.0000 C   0  0  0  0  0  0  0  0  0  0  0  0
    4.2868   -7.4250    0.0000 C   0  0  0  0  0  0  0  0  0  0  0  0
    5.0013   -7.8375    0.0000 Cl  0  0  0  0  0  0  0  0  0  0  0  0
    3.5724   -7.8375    0.0000 C   0  0  0  0  0  0  0  0  0  0  0  0
    2.8579   -7.4250    0.0000 C   0  0  0  0  0  0  0  0  0  0  0  0
    1.4289   -4.1250    0.0000 C   0  0  1  0  0  0  0  0  0  0  0  0
    0.7145   -3.7125    0.0000 C   0  0  0  0  0  0  0  0  0  0  0  0
    0.7145   -2.8875    0.0000 C   0  0  0  0  0  0  0  0  0  0  0  0
    1.4289   -2.4750    0.0000 C   0  0  1  0  0  0  0  0  0  0  0  0
    1.4289   -1.6500    0.0000 C   0  0  0  0  0  0  0  0  0  0  0  0
    0.7145   -1.2375    0.0000 C   0  0  0  0  0  0  0  0  0  0  0  0
    0.7145   -0.4125    0.0000 C   0  0  0  0  0  0  0  0  0  0  0  0
    1.4289    0.0000    0.0000 N   0  0  0  0  0  0  0  0  0  0  0  0
    2.1434   -0.4125    0.0000 C   0  0  0  0  0  0  0  0  0  0  0  0
    2.8579    0.0000    0.0000 C   0  0  0  0  0  0  0  0  0  0  0  0
    3.5724   -0.4125    0.0000 C   0  0  0  0  0  0  0  0  0  0  0  0
    3.5724   -1.2375    0.0000 C   0  0  0  0  0  0  0  0  0  0  0  0
    4.2868   -1.6500    0.0000 F   0  0  0  0  0  0  0  0  0  0  0  0
    2.8579   -1.6500    0.0000 C   0  0  0  0  0  0  0  0  0  0  0  0
    2.1434   -1.2375    0.0000 C   0  0  0  0  0  0  0  0  0  0  0  0
    2.1434   -2.8875    0.0000 C   0  0  0  0  0  0  0  0  0  0  0  0
    2.1434   -3.7125    0.0000 C   0  0  0  0  0  0  0  0  0  0  0  0
  2  1  1  6  0  0  0
  2  3  1  0  0  0  0
  3  4  2  0  0  0  0
  3  5  1  0  0  0  0
  5  6  1  0  0  0  0
  6  7  4  0  0  0  0
  7  8  4  0  0  0  0
  8  9  4  0  0  0  0
  9 10  1  0  0  0  0
  9 11  4  0  0  0  0
 11 12  4  0  0  0  0
  6 12  4  0  0  0  0
  2 13  1  0  0  0  0
 13 14  1  1  0  0  0
 14 15  1  0  0  0  0
 16 15  1  0  0  0  0
 16 17  1  1  0  0  0
 17 18  4  0  0  0  0
 18 19  4  0  0  0  0
 19 20  4  0  0  0  0
 20 21  4  0  0  0  0
 21 22  4  0  0  0  0
 22 23  4  0  0  0  0
 23 24  4  0  0  0  0
 24 25  1  0  0  0  0
 24 26  4  0  0  0  0
 26 27  4  0  0  0  0
 21 27  4  0  0  0  0
 17 27  4  0  0  0  0
 16 28  1  0  0  0  0
 28 29  1  0  0  0  0
 13 29  1  0  0  0  0
M  END
>  <CdId>
215

>  <Mol Weight>
410.92

>  <Formula>
C24H24ClFN2O

>  <Molecule ChEMBL ID>
CHEMBL4161733

>  <Molecule Max Phase>
None

>  <Molecular Weight>
410.92

>  <#RO5 Violations>
1

>  <AlogP>
6.58

>  <Compound Key>
2; BMS-986205

>  <Standard Type>
IC50

>  <Standard Relation>
'='

>  <Standard Value>
2000.0

>  <Standard Units>
nM

$$$$

  Mrv2114 03112311372D          

 33 37  0  0  0  0            999 V2000
    0.0000   -2.4750    0.0000 C   0  0  0  0  0  0  0  0  0  0  0  0
    0.0000   -1.6500    0.0000 C   0  0  0  0  0  0  0  0  0  0  0  0
    0.7145   -1.2375    0.0000 C   0  0  0  0  0  0  0  0  0  0  0  0
    0.7145   -0.4125    0.0000 C   0  0  0  0  0  0  0  0  0  0  0  0
    1.4289    0.0000    0.0000 C   0  0  0  0  0  0  0  0  0  0  0  0
    1.4289    0.8250    0.0000 F   0  0  0  0  0  0  0  0  0  0  0  0
    2.1434   -0.4125    0.0000 C   0  0  0  0  0  0  0  0  0  0  0  0
    2.8579    0.0000    0.0000 N   0  0  0  0  0  0  0  0  0  0  0  0
    3.5724   -0.4125    0.0000 C   0  0  0  0  0  0  0  0  0  0  0  0
    4.2868   -0.0000    0.0000 N   0  0  0  0  0  0  0  0  0  0  0  0
    4.2868    0.8250    0.0000 C   0  0  0  0  0  0  0  0  0  0  0  0
    5.0013    1.2375    0.0000 C   0  0  0  0  0  0  0  0  0  0  0  0
    5.7158    0.8250    0.0000 C   0  0  0  0  0  0  0  0  0  0  0  0
    6.4302    1.2375    0.0000 N   0  0  0  0  0  0  0  0  0  0  0  0
    7.1447    0.8250    0.0000 C   0  0  0  0  0  0  0  0  0  0  0  0
    7.8592    1.2375    0.0000 C   0  0  0  0  0  0  0  0  0  0  0  0
    8.5737    0.8250    0.0000 C   0  0  0  0  0  0  0  0  0  0  0  0
    8.5737   -0.0000    0.0000 O   0  0  0  0  0  0  0  0  0  0  0  0
    7.8592   -0.4125    0.0000 C   0  0  0  0  0  0  0  0  0  0  0  0
    7.1447   -0.0000    0.0000 C   0  0  0  0  0  0  0  0  0  0  0  0
    5.7158   -0.0000    0.0000 C   0  0  0  0  0  0  0  0  0  0  0  0
    5.0013   -0.4125    0.0000 C   0  0  0  0  0  0  0  0  0  0  0  0
    3.5724   -1.2375    0.0000 C   0  0  0  0  0  0  0  0  0  0  0  0
    4.2868   -1.6500    0.0000 C   0  0  0  0  0  0  0  0  0  0  0  0
    5.0405   -1.3144    0.0000 N   0  0  0  0  0  0  0  0  0  0  0  0
    5.5925   -1.9275    0.0000 C   0  0  0  0  0  0  0  0  0  0  0  0
    6.4130   -1.8413    0.0000 C   0  0  0  0  0  0  0  0  0  0  0  0
    5.1800   -2.6420    0.0000 N   0  0  0  0  0  0  0  0  0  0  0  0
    4.3731   -2.4705    0.0000 O   0  0  0  0  0  0  0  0  0  0  0  0
    2.8579   -1.6500    0.0000 C   0  0  0  0  0  0  0  0  0  0  0  0
    2.8579   -2.4750    0.0000 C   0  0  0  0  0  0  0  0  0  0  0  0
    2.1434   -1.2375    0.0000 C   0  0  0  0  0  0  0  0  0  0  0  0
    1.4289   -1.6500    0.0000 C   0  0  0  0  0  0  0  0  0  0  0  0
  1  2  1  0  0  0  0
  2  3  1  0  0  0  0
  3  4  4  0  0  0  0
  4  5  4  0  0  0  0
  5  6  1  0  0  0  0
  5  7  4  0  0  0  0
  7  8  4  0  0  0  0
  8  9  4  0  0  0  0
  9 10  1  0  0  0  0
 10 11  1  0  0  0  0
 11 12  1  0  0  0  0
 12 13  1  0  0  0  0
 13 14  1  0  0  0  0
 14 15  1  0  0  0  0
 15 16  1  0  0  0  0
 16 17  1  0  0  0  0
 17 18  1  0  0  0  0
 18 19  1  0  0  0  0
 19 20  1  0  0  0  0
 15 20  1  0  0  0  0
 13 21  1  0  0  0  0
 21 22  1  0  0  0  0
 10 22  1  0  0  0  0
  9 23  4  0  0  0  0
 23 24  1  0  0  0  0
 24 25  4  0  0  0  0
 25 26  4  0  0  0  0
 26 27  1  0  0  0  0
 26 28  4  0  0  0  0
 28 29  4  0  0  0  0
 24 29  4  0  0  0  0
 23 30  4  0  0  0  0
 30 31  1  0  0  0  0
 30 32  4  0  0  0  0
  7 32  4  0  0  0  0
 32 33  4  0  0  0  0
  3 33  4  0  0  0  0
M  END
>  <CdId>
216

>  <Mol Weight>
453.562

>  <Formula>
C25H32FN5O2

>  <Molecule ChEMBL ID>
CHEMBL4592045

>  <Molecule Name>
BTRX-335140

>  <Molecule Max Phase>
2

>  <Molecular Weight>
453.56

>  <#RO5 Violations>
0

>  <AlogP>
4.34

>  <Compound Key>
58; CYM-53093, BTRX-335140

>  <Standard Type>
IC50

>  <Standard Relation>
'>'

>  <Standard Value>
30000.0

>  <Standard Units>
nM

$$$$

  Mrv2114 03112311372D          

 32 35  0  0  0  0            999 V2000
    1.4289   -2.4750    0.0000 C   0  0  0  0  0  0  0  0  0  0  0  0
    1.4289   -1.6500    0.0000 N   0  0  0  0  0  0  0  0  0  0  0  0
    0.7145   -1.2375    0.0000 C   0  0  0  0  0  0  0  0  0  0  0  0
    0.0000   -1.6500    0.0000 O   0  0  0  0  0  0  0  0  0  0  0  0
    0.7145   -0.4125    0.0000 N   0  0  0  0  0  0  0  0  0  0  0  0
    0.0000    0.0000    0.0000 C   0  0  0  0  0  0  0  0  0  0  0  0
   -0.7145   -0.4125    0.0000 C   0  0  0  0  0  0  0  0  0  0  0  0
   -0.7145   -1.2375    0.0000 C   0  0  0  0  0  0  0  0  0  0  0  0
   -1.4289   -1.6500    0.0000 C   0  0  0  0  0  0  0  0  0  0  0  0
   -2.1434   -1.2375    0.0000 C   0  0  0  0  0  0  0  0  0  0  0  0
   -2.8579   -1.6500    0.0000 C   0  0  0  0  0  0  0  0  0  0  0  0
   -3.5724   -1.2375    0.0000 O   0  0  0  0  0  0  0  0  0  0  0  0
   -2.8579   -2.4750    0.0000 O   0  0  0  0  0  0  0  0  0  0  0  0
   -2.1434   -0.4125    0.0000 C   0  0  0  0  0  0  0  0  0  0  0  0
   -1.4289    0.0000    0.0000 C   0  0  0  0  0  0  0  0  0  0  0  0
    1.4289    0.0000    0.0000 C   0  0  0  0  0  0  0  0  0  0  0  0
    1.4289    0.8250    0.0000 O   0  0  0  0  0  0  0  0  0  0  0  0
    2.1434   -0.4125    0.0000 C   0  0  0  0  0  0  0  0  0  0  0  0
    2.8579    0.0000    0.0000 C   0  0  0  0  0  0  0  0  0  0  0  0
    3.5724   -0.4125    0.0000 C   0  0  0  0  0  0  0  0  0  0  0  0
    4.2868   -0.0000    0.0000 C   0  0  0  0  0  0  0  0  0  0  0  0
    5.0013    0.4125    0.0000 C   0  0  0  0  0  0  0  0  0  0  0  0
    5.7158    0.8250    0.0000 C   0  0  0  0  0  0  0  0  0  0  0  0
    6.4302    0.4125    0.0000 C   0  0  0  0  0  0  0  0  0  0  0  0
    7.1447    0.8250    0.0000 C   0  0  0  0  0  0  0  0  0  0  0  0
    7.8592    0.4125    0.0000 C   0  0  0  0  0  0  0  0  0  0  0  0
    7.8592   -0.4125    0.0000 C   0  0  0  0  0  0  0  0  0  0  0  0
    7.1447   -0.8250    0.0000 C   0  0  0  0  0  0  0  0  0  0  0  0
    6.4302   -0.4125    0.0000 C   0  0  0  0  0  0  0  0  0  0  0  0
    3.5724   -1.2375    0.0000 C   0  0  0  0  0  0  0  0  0  0  0  0
    2.8579   -1.6500    0.0000 C   0  0  0  0  0  0  0  0  0  0  0  0
    2.1434   -1.2375    0.0000 C   0  0  0  0  0  0  0  0  0  0  0  0
  1  2  1  0  0  0  0
  2  3  4  0  0  0  0
  3  4  2  0  0  0  0
  3  5  4  0  0  0  0
  5  6  1  0  0  0  0
  6  7  1  0  0  0  0
  7  8  4  0  0  0  0
  8  9  4  0  0  0  0
  9 10  4  0  0  0  0
 10 11  1  0  0  0  0
 11 12  2  0  0  0  0
 11 13  1  0  0  0  0
 10 14  4  0  0  0  0
 14 15  4  0  0  0  0
  7 15  4  0  0  0  0
  5 16  4  0  0  0  0
 16 17  2  0  0  0  0
 16 18  4  0  0  0  0
 18 19  4  0  0  0  0
 19 20  4  0  0  0  0
 20 21  1  0  0  0  0
 21 22  3  0  0  0  0
 22 23  1  0  0  0  0
 23 24  1  0  0  0  0
 24 25  4  0  0  0  0
 25 26  4  0  0  0  0
 26 27  4  0  0  0  0
 27 28  4  0  0  0  0
 28 29  4  0  0  0  0
 24 29  4  0  0  0  0
 20 30  4  0  0  0  0
 30 31  4  0  0  0  0
 31 32  4  0  0  0  0
 18 32  4  0  0  0  0
  2 32  4  0  0  0  0
M  END
>  <CdId>
217

>  <Mol Weight>
424.456

>  <Formula>
C26H20N2O4

>  <Molecule ChEMBL ID>
CHEMBL496942

>  <Molecule Max Phase>
None

>  <Molecular Weight>
424.46

>  <#RO5 Violations>
0

>  <AlogP>
3.04

>  <Compound Key>
5

>  <Standard Type>
IC50

>  <Standard Relation>
'>'

>  <Standard Value>
2500.0

>  <Standard Units>
nM

$$$$

  Mrv2114 03112311372D          

 29 32  0  0  0  0            999 V2000
    5.4896   -1.6384    0.0000 O   0  0  0  0  0  0  0  0  0  0  0  0
    5.6358   -0.8265    0.0000 C   0  0  0  0  0  0  0  0  0  0  0  0
    5.0058   -0.2939    0.0000 C   0  0  0  0  0  0  0  0  0  0  0  0
    4.2295   -0.5732    0.0000 C   0  0  0  0  0  0  0  0  0  0  0  0
    3.5995   -0.0406    0.0000 C   0  0  0  0  0  0  0  0  0  0  0  0
    3.6601    0.7822    0.0000 N   0  0  0  0  0  0  0  0  0  0  0  0
    2.8963    1.0941    0.0000 O   0  0  0  0  0  0  0  0  0  0  0  0
    2.3637    0.4640    0.0000 C   0  0  0  0  0  0  0  0  0  0  0  0
    2.7983   -0.2372    0.0000 C   0  0  0  0  0  0  0  0  0  0  0  0
    2.4083   -0.9642    0.0000 C   0  0  0  0  0  0  0  0  0  0  0  0
    1.5837   -0.9900    0.0000 C   0  0  0  0  0  0  0  0  0  0  0  0
    1.1491   -0.2887    0.0000 C   0  0  0  0  0  0  0  0  0  0  0  0
    0.3245   -0.3145    0.0000 C   0  0  0  0  0  0  0  0  0  0  0  0
   -0.0655   -1.0415    0.0000 Cl  0  0  0  0  0  0  0  0  0  0  0  0
   -0.1101    0.3867    0.0000 C   0  0  0  0  0  0  0  0  0  0  0  0
   -0.9347    0.3610    0.0000 O   0  0  0  0  0  0  0  0  0  0  0  0
    0.2799    1.1137    0.0000 C   0  0  0  0  0  0  0  0  0  0  0  0
    1.1045    1.1395    0.0000 C   0  0  0  0  0  0  0  0  0  0  0  0
    1.5391    0.4383    0.0000 C   0  0  0  0  0  0  0  0  0  0  0  0
    6.4121   -0.5472    0.0000 N   0  0  0  0  0  0  0  0  0  0  0  0
    7.0422   -1.0798    0.0000 C   0  0  0  0  0  0  0  0  0  0  0  0
    7.8184   -0.8005    0.0000 C   0  0  0  0  0  0  0  0  0  0  0  0
    7.9647    0.0115    0.0000 C   0  0  0  0  0  0  0  0  0  0  0  0
    7.3346    0.5441    0.0000 O   0  0  0  0  0  0  0  0  0  0  0  0
    8.7410    0.2908    0.0000 O   0  0  0  0  0  0  0  0  0  0  0  0
    8.4485   -1.3331    0.0000 C   0  0  0  0  0  0  0  0  0  0  0  0
    8.3022   -2.1450    0.0000 C   0  0  0  0  0  0  0  0  0  0  0  0
    7.5259   -2.4243    0.0000 C   0  0  0  0  0  0  0  0  0  0  0  0
    6.8959   -1.8917    0.0000 C   0  0  0  0  0  0  0  0  0  0  0  0
  1  2  2  0  0  0  0
  2  3  1  0  0  0  0
  3  4  1  0  0  0  0
  4  5  1  0  0  0  0
  5  6  4  0  0  0  0
  6  7  4  0  0  0  0
  7  8  4  0  0  0  0
  8  9  4  0  0  0  0
  5  9  4  0  0  0  0
  9 10  4  0  0  0  0
 10 11  4  0  0  0  0
 11 12  4  0  0  0  0
 12 13  4  0  0  0  0
 13 14  1  0  0  0  0
 13 15  4  0  0  0  0
 15 16  1  0  0  0  0
 15 17  4  0  0  0  0
 17 18  4  0  0  0  0
 18 19  4  0  0  0  0
 12 19  4  0  0  0  0
  8 19  4  0  0  0  0
  2 20  1  0  0  0  0
 20 21  1  0  0  0  0
 21 22  2  0  0  0  0
 22 23  1  0  0  0  0
 23 24  2  0  0  0  0
 23 25  1  0  0  0  0
 22 26  1  0  0  0  0
 26 27  1  0  0  0  0
 27 28  1  0  0  0  0
 28 29  1  0  0  0  0
 21 29  1  0  0  0  0
M  END
>  <CdId>
218

>  <Mol Weight>
414.84

>  <Formula>
C21H19ClN2O5

>  <Molecule ChEMBL ID>
CHEMBL483336

>  <Molecule Max Phase>
None

>  <Molecular Weight>
414.85

>  <#RO5 Violations>
0

>  <AlogP>
4.3

>  <Compound Key>
3d

>  <Standard Type>
IC50

$$$$

  Mrv2114 03112311372D          

 30 34  0  0  1  0            999 V2000
    3.9849   -1.8243    0.0000 O   0  0  0  0  0  0  0  0  0  0  0  0
    4.6993   -1.4118    0.0000 C   0  0  0  0  0  0  0  0  0  0  0  0
    5.4138   -1.8243    0.0000 N   0  0  0  0  0  0  0  0  0  0  0  0
    5.4138   -2.6493    0.0000 C   0  0  1  0  0  0  0  0  0  0  0  0
    5.8263   -3.3638    0.0000 C   0  0  0  0  0  0  0  0  0  0  0  0
    5.0013   -3.3638    0.0000 C   0  0  2  0  0  0  0  0  0  0  0  0
    4.2868   -3.7763    0.0000 C   0  0  0  0  0  0  0  0  0  0  0  0
    4.2868   -4.6013    0.0000 C   0  0  0  0  0  0  0  0  0  0  0  0
    3.5724   -5.0138    0.0000 C   0  0  0  0  0  0  0  0  0  0  0  0
    2.8579   -4.6013    0.0000 C   0  0  0  0  0  0  0  0  0  0  0  0
    2.8579   -3.7763    0.0000 C   0  0  0  0  0  0  0  0  0  0  0  0
    3.5724   -3.3638    0.0000 C   0  0  0  0  0  0  0  0  0  0  0  0
    4.6993   -0.5868    0.0000 N   0  0  0  0  0  0  0  0  0  0  0  0
    3.9849   -0.1743    0.0000 C   0  0  0  0  0  0  0  0  0  0  0  0
    3.9849    0.6507    0.0000 C   0  0  0  0  0  0  0  0  0  0  0  0
    4.6993    1.0632    0.0000 C   0  0  0  0  0  0  0  0  0  0  0  0
    4.6993    1.8882    0.0000 O   0  0  0  0  0  0  0  0  0  0  0  0
    5.4138    2.3007    0.0000 C   0  0  0  0  0  0  0  0  0  0  0  0
    5.4138    3.1257    0.0000 C   0  0  0  0  0  0  0  0  0  0  0  0
    6.1283    3.5382    0.0000 C   0  0  0  0  0  0  0  0  0  0  0  0
    6.8427    3.1257    0.0000 C   0  0  0  0  0  0  0  0  0  0  0  0
    7.5572    3.5382    0.0000 C   0  0  0  0  0  0  0  0  0  0  0  0
    7.6434    4.3586    0.0000 N   0  0  0  0  0  0  0  0  0  0  0  0
    8.4504    4.5302    0.0000 N   0  0  0  0  0  0  0  0  0  0  0  0
    8.8629    3.8157    0.0000 N   0  0  0  0  0  0  0  0  0  0  0  0
    8.3109    3.2026    0.0000 N   0  0  0  0  0  0  0  0  0  0  0  0
    6.8427    2.3007    0.0000 C   0  0  0  0  0  0  0  0  0  0  0  0
    6.1283    1.8882    0.0000 C   0  0  0  0  0  0  0  0  0  0  0  0
    5.4138    0.6507    0.0000 C   0  0  0  0  0  0  0  0  0  0  0  0
    5.4138   -0.1743    0.0000 C   0  0  0  0  0  0  0  0  0  0  0  0
  1  2  2  0  0  0  0
  2  3  1  0  0  0  0
  4  3  1  1  0  0  0
  4  5  1  0  0  0  0
  6  5  1  0  0  0  0
  4  6  1  0  0  0  0
  6  7  1  6  0  0  0
  7  8  4  0  0  0  0
  8  9  4  0  0  0  0
  9 10  4  0  0  0  0
 10 11  4  0  0  0  0
 11 12  4  0  0  0  0
  7 12  4  0  0  0  0
  2 13  1  0  0  0  0
 13 14  1  0  0  0  0
 14 15  1  0  0  0  0
 15 16  1  0  0  0  0
 16 17  1  0  0  0  0
 17 18  1  0  0  0  0
 18 19  4  0  0  0  0
 19 20  4  0  0  0  0
 20 21  4  0  0  0  0
 21 22  1  0  0  0  0
 22 23  4  0  0  0  0
 23 24  4  0  0  0  0
 24 25  4  0  0  0  0
 25 26  4  0  0  0  0
 22 26  4  0  0  0  0
 21 27  4  0  0  0  0
 27 28  4  0  0  0  0
 18 28  4  0  0  0  0
 16 29  1  0  0  0  0
 29 30  1  0  0  0  0
 13 30  1  0  0  0  0
M  STY  1   1 DAT
M  SAL   1  1  25
M  SDT   1 MRV_IMPLICIT_H                                        
M  SDD   1     0.0000    0.0000    DR    ALL  0       0  
M  SED   1 IMPL_H1
M  END
>  <CdId>
219

>  <Mol Weight>
404.474

>  <Formula>
C22H24N6O2

>  <Molecule ChEMBL ID>
CHEMBL3114608

>  <Molecule Max Phase>
None

>  <Molecular Weight>
404.47

>  <#RO5 Violations>
0

>  <AlogP>
2.98

>  <Compound Key>
39

>  <Standard Type>
IC50

>  <Standard Relation>
'='

>  <Standard Value>
800.0

>  <Standard Units>
nM

$$$$

  Mrv2114 03112311372D          

 21 21  0  0  1  0            999 V2000
    2.8579   -6.6000    0.0000 C   0  0  0  0  0  0  0  0  0  0  0  0
    3.5724   -6.1875    0.0000 C   0  0  0  0  0  0  0  0  0  0  0  0
    4.2868   -6.6000    0.0000 C   0  0  0  0  0  0  0  0  0  0  0  0
    5.0013   -6.1875    0.0000 C   0  0  0  0  0  0  0  0  0  0  0  0
    5.7158   -6.6000    0.0000 C   0  0  0  0  0  0  0  0  0  0  0  0
    6.4302   -6.1875    0.0000 C   0  0  2  0  0  0  0  0  0  0  0  0
    6.4302   -5.3625    0.0000 O   0  0  0  0  0  0  0  0  0  0  0  0
    7.1447   -6.6000    0.0000 C   0  0  0  0  0  0  0  0  0  0  0  0
    7.8592   -6.1875    0.0000 C   0  0  0  0  0  0  0  0  0  0  0  0
    7.8592   -5.3625    0.0000 O   0  0  0  0  0  0  0  0  0  0  0  0
    8.5737   -6.6000    0.0000 C   0  0  0  0  0  0  0  0  0  0  0  0
    9.2881   -6.1875    0.0000 C   0  0  0  0  0  0  0  0  0  0  0  0
   10.0026   -6.6000    0.0000 C   0  0  0  0  0  0  0  0  0  0  0  0
   10.7171   -6.1875    0.0000 C   0  0  0  0  0  0  0  0  0  0  0  0
   11.4315   -6.6000    0.0000 C   0  0  0  0  0  0  0  0  0  0  0  0
   11.4315   -7.4250    0.0000 C   0  0  0  0  0  0  0  0  0  0  0  0
   12.1460   -7.8375    0.0000 O   0  0  0  0  0  0  0  0  0  0  0  0
   10.7171   -7.8375    0.0000 C   0  0  0  0  0  0  0  0  0  0  0  0
   10.7171   -8.6625    0.0000 O   0  0  0  0  0  0  0  0  0  0  0  0
   10.0026   -9.0750    0.0000 C   0  0  0  0  0  0  0  0  0  0  0  0
   10.0026   -7.4250    0.0000 C   0  0  0  0  0  0  0  0  0  0  0  0
  1  2  1  0  0  0  0
  2  3  1  0  0  0  0
  3  4  1  0  0  0  0
  4  5  1  0  0  0  0
  6  5  1  0  0  0  0
  6  7  1  6  0  0  0
  6  8  1  0  0  0  0
  8  9  1  0  0  0  0
  9 10  2  0  0  0  0
  9 11  1  0  0  0  0
 11 12  1  0  0  0  0
 12 13  1  0  0  0  0
 13 14  4  0  0  0  0
 14 15  4  0  0  0  0
 15 16  4  0  0  0  0
 16 17  1  0  0  0  0
 16 18  4  0  0  0  0
 18 19  1  0  0  0  0
 19 20  1  0  0  0  0
 18 21  4  0  0  0  0
 13 21  4  0  0  0  0
M  END
>  <CdId>
220

>  <Mol Weight>
294.391

>  <Formula>
C17H26O4

>  <Molecule ChEMBL ID>
CHEMBL402978

>  <Molecule Name>
GINGEROL

>  <Molecule Max Phase>
None

>  <Molecular Weight>
294.39

>  <#RO5 Violations>
0

>  <AlogP>
3.23

>  <Compound Key>
6-Gingerol

>  <Standard Type>
IC50

>  <Standard Relation>
'='

>  <Standard Value>
22100.0

>  <Standard Units>
nM

$$$$

  Mrv2114 03112311372D          

 28 31  0  0  1  0            999 V2000
   -2.6462   -2.1269    0.0000 C   0  0  0  0  0  0  0  0  0  0  0  0
   -1.8212   -2.1269    0.0000 C   0  0  0  0  0  0  0  0  0  0  0  0
   -1.4087   -1.4124    0.0000 C   0  0  0  0  0  0  0  0  0  0  0  0
   -0.5837   -1.4124    0.0000 C   0  0  0  0  0  0  0  0  0  0  0  0
   -0.1712   -0.6979    0.0000 S   0  3  1  0  0  0  0  0  0  0  0  0
   -0.5837    0.0165    0.0000 O   0  5  0  0  0  0  0  0  0  0  0  0
    0.6538   -0.6979    0.0000 C   0  0  0  0  0  0  0  0  0  0  0  0
    1.1387   -0.0305    0.0000 S   0  0  0  0  0  0  0  0  0  0  0  0
    1.9233   -0.2854    0.0000 C   0  0  0  0  0  0  0  0  0  0  0  0
    2.6378    0.1271    0.0000 N   0  0  0  0  0  0  0  0  0  0  0  0
    3.3523   -0.2854    0.0000 C   0  0  0  0  0  0  0  0  0  0  0  0
    4.0668    0.1271    0.0000 C   0  0  0  0  0  0  0  0  0  0  0  0
    4.1530    0.9475    0.0000 N   0  0  0  0  0  0  0  0  0  0  0  0
    4.9600    1.1191    0.0000 C   0  0  0  0  0  0  0  0  0  0  0  0
    5.3725    0.4046    0.0000 C   0  0  0  0  0  0  0  0  0  0  0  0
    4.8204   -0.2085    0.0000 S   0  0  0  0  0  0  0  0  0  0  0  0
    3.3523   -1.1104    0.0000 C   0  0  0  0  0  0  0  0  0  0  0  0
    2.6378   -1.5229    0.0000 C   0  0  0  0  0  0  0  0  0  0  0  0
    2.6378   -2.3479    0.0000 C   0  0  0  0  0  0  0  0  0  0  0  0
    3.3053   -2.8329    0.0000 C   0  0  0  0  0  0  0  0  0  0  0  0
    3.0503   -3.6175    0.0000 N   0  0  0  0  0  0  0  0  0  0  0  0
    2.2253   -3.6175    0.0000 C   0  0  0  0  0  0  0  0  0  0  0  0
    1.7404   -4.2849    0.0000 C   0  0  0  0  0  0  0  0  0  0  0  0
    1.9704   -2.8329    0.0000 N   0  0  0  0  0  0  0  0  0  0  0  0
    1.1858   -2.5779    0.0000 C   0  0  0  0  0  0  0  0  0  0  0  0
    1.9233   -1.1104    0.0000 C   0  0  0  0  0  0  0  0  0  0  0  0
    1.1387   -1.3654    0.0000 C   0  0  0  0  0  0  0  0  0  0  0  0
    0.8838   -2.1500    0.0000 N   0  0  0  0  0  0  0  0  0  0  0  0
  1  2  1  0  0  0  0
  2  3  1  0  0  0  0
  3  4  1  0  0  0  0
  5  4  1  0  0  0  0
  5  6  1  1  0  0  0
  5  7  1  0  0  0  0
  7  8  4  0  0  0  0
  8  9  4  0  0  0  0
  9 10  4  0  0  0  0
 10 11  4  0  0  0  0
 11 12  1  0  0  0  0
 12 13  4  0  0  0  0
 13 14  4  0  0  0  0
 14 15  4  0  0  0  0
 15 16  4  0  0  0  0
 12 16  4  0  0  0  0
 11 17  4  0  0  0  0
 17 18  4  0  0  0  0
 18 19  1  0  0  0  0
 19 20  4  0  0  0  0
 20 21  4  0  0  0  0
 21 22  4  0  0  0  0
 22 23  1  0  0  0  0
 22 24  4  0  0  0  0
 19 24  4  0  0  0  0
 24 25  1  0  0  0  0
 18 26  4  0  0  0  0
  9 26  4  0  0  0  0
 26 27  4  0  0  0  0
  7 27  4  0  0  0  0
 27 28  1  0  0  0  0
M  CHG  2   5   1   6  -1
M  END
>  <CdId>
221

>  <Mol Weight>
431.59

>  <Formula>
C19H21N5OS3

>  <Molecule ChEMBL ID>
CHEMBL4070789

>  <Molecule Max Phase>
None

>  <Molecular Weight>
431.61

>  <#RO5 Violations>
0

>  <AlogP>
4.62

>  <Compound Key>
(+)-(R)-12q

>  <Standard Type>
IC50

>  <Standard Relation>
'>'

>  <Standard Value>
10000.0

>  <Standard Units>
nM

$$$$

  Mrv2114 03112311372D          

 28 31  0  0  0  0            999 V2000
    5.4896   -1.6384    0.0000 O   0  0  0  0  0  0  0  0  0  0  0  0
    5.6358   -0.8265    0.0000 C   0  0  0  0  0  0  0  0  0  0  0  0
    5.0058   -0.2939    0.0000 C   0  0  0  0  0  0  0  0  0  0  0  0
    4.2295   -0.5732    0.0000 C   0  0  0  0  0  0  0  0  0  0  0  0
    3.5995   -0.0406    0.0000 C   0  0  0  0  0  0  0  0  0  0  0  0
    3.6601    0.7822    0.0000 C   0  0  0  0  0  0  0  0  0  0  0  0
    2.8963    1.0941    0.0000 N   0  0  0  0  0  0  0  0  0  0  0  0
    2.3637    0.4640    0.0000 N   0  0  0  0  0  0  0  0  0  0  0  0
    2.7983   -0.2372    0.0000 C   0  0  0  0  0  0  0  0  0  0  0  0
    2.4083   -0.9642    0.0000 C   0  0  0  0  0  0  0  0  0  0  0  0
    1.5837   -0.9900    0.0000 C   0  0  0  0  0  0  0  0  0  0  0  0
    1.1491   -0.2887    0.0000 C   0  0  0  0  0  0  0  0  0  0  0  0
    0.3245   -0.3145    0.0000 C   0  0  0  0  0  0  0  0  0  0  0  0
   -0.1101    0.3867    0.0000 C   0  0  0  0  0  0  0  0  0  0  0  0
   -0.9347    0.3610    0.0000 O   0  0  0  0  0  0  0  0  0  0  0  0
    0.2799    1.1137    0.0000 C   0  0  0  0  0  0  0  0  0  0  0  0
    1.1045    1.1395    0.0000 C   0  0  0  0  0  0  0  0  0  0  0  0
    1.5391    0.4383    0.0000 C   0  0  0  0  0  0  0  0  0  0  0  0
    6.4121   -0.5472    0.0000 N   0  0  0  0  0  0  0  0  0  0  0  0
    7.0422   -1.0798    0.0000 C   0  0  0  0  0  0  0  0  0  0  0  0
    7.8184   -0.8005    0.0000 C   0  0  0  0  0  0  0  0  0  0  0  0
    7.9647    0.0115    0.0000 C   0  0  0  0  0  0  0  0  0  0  0  0
    7.3346    0.5441    0.0000 O   0  0  0  0  0  0  0  0  0  0  0  0
    8.7410    0.2908    0.0000 O   0  0  0  0  0  0  0  0  0  0  0  0
    8.4485   -1.3331    0.0000 C   0  0  0  0  0  0  0  0  0  0  0  0
    8.3022   -2.1450    0.0000 C   0  0  0  0  0  0  0  0  0  0  0  0
    7.5259   -2.4243    0.0000 C   0  0  0  0  0  0  0  0  0  0  0  0
    6.8959   -1.8917    0.0000 C   0  0  0  0  0  0  0  0  0  0  0  0
  1  2  2  0  0  0  0
  2  3  1  0  0  0  0
  3  4  1  0  0  0  0
  4  5  1  0  0  0  0
  5  6  4  0  0  0  0
  6  7  4  0  0  0  0
  7  8  4  0  0  0  0
  8  9  4  0  0  0  0
  5  9  4  0  0  0  0
  9 10  4  0  0  0  0
 10 11  4  0  0  0  0
 11 12  4  0  0  0  0
 12 13  4  0  0  0  0
 13 14  4  0  0  0  0
 14 15  1  0  0  0  0
 14 16  4  0  0  0  0
 16 17  4  0  0  0  0
 17 18  4  0  0  0  0
 12 18  4  0  0  0  0
  8 18  4  0  0  0  0
  2 19  1  0  0  0  0
 19 20  1  0  0  0  0
 20 21  2  0  0  0  0
 21 22  1  0  0  0  0
 22 23  2  0  0  0  0
 22 24  1  0  0  0  0
 21 25  1  0  0  0  0
 25 26  1  0  0  0  0
 26 27  1  0  0  0  0
 27 28  1  0  0  0  0
 20 28  1  0  0  0  0
M  END
>  <CdId>
222

>  <Mol Weight>
379.416

>  <Formula>
C21H21N3O4

>  <Molecule ChEMBL ID>
CHEMBL483337

>  <Molecule Max Phase>
None

>  <Molecular Weight>
379.42

>  <#RO5 Violations>
0

>  <AlogP>
3.15

>  <Compound Key>
3e

>  <Standard Type>
IC50

$$$$

  Mrv2114 03112311372D          

 26 28  0  0  0  0            999 V2000
   -3.0587    1.4455    0.0000 C   0  0  0  0  0  0  0  0  0  0  0  0
   -2.6462    0.7310    0.0000 C   0  0  0  0  0  0  0  0  0  0  0  0
   -1.8212    0.7310    0.0000 C   0  0  0  0  0  0  0  0  0  0  0  0
   -1.4087    0.0165    0.0000 C   0  0  0  0  0  0  0  0  0  0  0  0
   -0.5837    0.0165    0.0000 C   0  0  0  0  0  0  0  0  0  0  0  0
   -0.1712    0.7310    0.0000 O   0  0  0  0  0  0  0  0  0  0  0  0
   -0.1712   -0.6979    0.0000 N   0  0  0  0  0  0  0  0  0  0  0  0
    0.6538   -0.6979    0.0000 C   0  0  0  0  0  0  0  0  0  0  0  0
    1.1387   -0.0305    0.0000 N   0  0  0  0  0  0  0  0  0  0  0  0
    1.9233   -0.2854    0.0000 C   0  0  0  0  0  0  0  0  0  0  0  0
    2.6378    0.1271    0.0000 C   0  0  0  0  0  0  0  0  0  0  0  0
    3.3523   -0.2854    0.0000 C   0  0  0  0  0  0  0  0  0  0  0  0
    3.3523   -1.1104    0.0000 C   0  0  0  0  0  0  0  0  0  0  0  0
    4.0668   -1.5229    0.0000 O   0  0  0  0  0  0  0  0  0  0  0  0
    4.7812   -1.1104    0.0000 C   0  0  0  0  0  0  0  0  0  0  0  0
    5.4957   -0.6979    0.0000 F   0  0  0  0  0  0  0  0  0  0  0  0
    5.1937   -1.8249    0.0000 F   0  0  0  0  0  0  0  0  0  0  0  0
    4.3687   -0.3960    0.0000 F   0  0  0  0  0  0  0  0  0  0  0  0
    2.6378   -1.5229    0.0000 C   0  0  0  0  0  0  0  0  0  0  0  0
    1.9233   -1.1104    0.0000 C   0  0  0  0  0  0  0  0  0  0  0  0
    1.1387   -1.3654    0.0000 S   0  0  0  0  0  0  0  0  0  0  0  0
   -1.8212   -0.6979    0.0000 C   0  0  0  0  0  0  0  0  0  0  0  0
   -2.6462   -0.6979    0.0000 C   0  0  0  0  0  0  0  0  0  0  0  0
   -2.5029   -1.5104    0.0000 C   0  0  0  0  0  0  0  0  0  0  0  0
   -3.4214   -0.9801    0.0000 C   0  0  0  0  0  0  0  0  0  0  0  0
   -3.0587    0.0165    0.0000 C   0  0  0  0  0  0  0  0  0  0  0  0
  1  2  1  0  0  0  0
  2  3  1  0  0  0  0
  3  4  1  0  0  0  0
  4  5  1  0  0  0  0
  5  6  2  0  0  0  0
  5  7  1  0  0  0  0
  7  8  1  0  0  0  0
  8  9  4  0  0  0  0
  9 10  4  0  0  0  0
 10 11  4  0  0  0  0
 11 12  4  0  0  0  0
 12 13  4  0  0  0  0
 13 14  1  0  0  0  0
 14 15  1  0  0  0  0
 15 16  1  0  0  0  0
 15 17  1  0  0  0  0
 15 18  1  0  0  0  0
 13 19  4  0  0  0  0
 19 20  4  0  0  0  0
 10 20  4  0  0  0  0
 20 21  4  0  0  0  0
  8 21  4  0  0  0  0
  4 22  1  0  0  0  0
 22 23  1  0  0  0  0
 23 24  1  0  0  0  0
 23 25  1  0  0  0  0
 23 26  1  0  0  0  0
  2 26  1  0  0  0  0
M  END
>  <CdId>
223

>  <Mol Weight>
386.43

>  <Formula>
C18H21F3N2O2S

>  <Molecule ChEMBL ID>
CHEMBL4287884

>  <Molecule Max Phase>
None

>  <Molecular Weight>
386.44

>  <#RO5 Violations>
1

>  <AlogP>
5.6

>  <Compound Key>
32

>  <Standard Type>
IC50

>  <Standard Relation>
'>'

>  <Standard Value>
20000.0

>  <Standard Units>
nM

$$$$

  Mrv2114 03112311372D          

 32 35  0  0  0  0            999 V2000
   -0.1712   -0.6979    0.0000 C   0  0  0  0  0  0  0  0  0  0  0  0
    0.6538   -0.6979    0.0000 C   0  0  0  0  0  0  0  0  0  0  0  0
    1.1387   -0.0305    0.0000 C   0  0  0  0  0  0  0  0  0  0  0  0
    0.8838    0.7541    0.0000 C   0  0  0  0  0  0  0  0  0  0  0  0
    1.4358    1.3672    0.0000 C   0  0  0  0  0  0  0  0  0  0  0  0
    1.1809    2.1518    0.0000 C   0  0  0  0  0  0  0  0  0  0  0  0
    1.7329    2.7649    0.0000 C   0  0  0  0  0  0  0  0  0  0  0  0
    2.5399    2.5934    0.0000 C   0  0  0  0  0  0  0  0  0  0  0  0
    3.0919    3.2065    0.0000 O   0  0  0  0  0  0  0  0  0  0  0  0
    2.7948    1.8088    0.0000 N   0  0  0  0  0  0  0  0  0  0  0  0
    3.6018    1.6373    0.0000 C   0  0  0  0  0  0  0  0  0  0  0  0
    4.1538    2.2503    0.0000 C   0  0  0  0  0  0  0  0  0  0  0  0
    3.8989    3.0350    0.0000 C   0  0  0  0  0  0  0  0  0  0  0  0
    4.4509    3.6481    0.0000 C   0  0  0  0  0  0  0  0  0  0  0  0
    5.2579    3.4765    0.0000 C   0  0  0  0  0  0  0  0  0  0  0  0
    5.8099    4.0896    0.0000 F   0  0  0  0  0  0  0  0  0  0  0  0
    5.5128    2.6919    0.0000 C   0  0  0  0  0  0  0  0  0  0  0  0
    4.9608    2.0788    0.0000 C   0  0  0  0  0  0  0  0  0  0  0  0
    5.2157    1.2942    0.0000 F   0  0  0  0  0  0  0  0  0  0  0  0
    2.2428    1.1957    0.0000 N   0  0  0  0  0  0  0  0  0  0  0  0
    1.9233   -0.2854    0.0000 C   0  0  0  0  0  0  0  0  0  0  0  0
    2.6378    0.1271    0.0000 C   0  0  0  0  0  0  0  0  0  0  0  0
    3.3523   -0.2854    0.0000 C   0  0  0  0  0  0  0  0  0  0  0  0
    4.0668    0.1271    0.0000 F   0  0  0  0  0  0  0  0  0  0  0  0
    3.3523   -1.1104    0.0000 C   0  0  0  0  0  0  0  0  0  0  0  0
    2.6378   -1.5229    0.0000 C   0  0  0  0  0  0  0  0  0  0  0  0
    1.9233   -1.1104    0.0000 C   0  0  0  0  0  0  0  0  0  0  0  0
    1.1387   -1.3654    0.0000 N   0  0  0  0  0  0  0  0  0  0  0  0
    0.8838   -2.1500    0.0000 C   0  0  0  0  0  0  0  0  0  0  0  0
    0.0768   -2.3215    0.0000 C   0  0  0  0  0  0  0  0  0  0  0  0
   -0.1781   -3.1062    0.0000 O   0  0  0  0  0  0  0  0  0  0  0  0
   -0.4752   -1.7084    0.0000 O   0  0  0  0  0  0  0  0  0  0  0  0
  1  2  1  0  0  0  0
  2  3  4  0  0  0  0
  3  4  1  0  0  0  0
  4  5  1  0  0  0  0
  5  6  4  0  0  0  0
  6  7  4  0  0  0  0
  7  8  4  0  0  0  0
  8  9  2  0  0  0  0
  8 10  4  0  0  0  0
 10 11  1  0  0  0  0
 11 12  1  0  0  0  0
 12 13  4  0  0  0  0
 13 14  4  0  0  0  0
 14 15  4  0  0  0  0
 15 16  1  0  0  0  0
 15 17  4  0  0  0  0
 17 18  4  0  0  0  0
 12 18  4  0  0  0  0
 18 19  1  0  0  0  0
 10 20  4  0  0  0  0
  5 20  4  0  0  0  0
  3 21  4  0  0  0  0
 21 22  4  0  0  0  0
 22 23  4  0  0  0  0
 23 24  1  0  0  0  0
 23 25  4  0  0  0  0
 25 26  4  0  0  0  0
 26 27  4  0  0  0  0
 21 27  4  0  0  0  0
 27 28  4  0  0  0  0
  2 28  4  0  0  0  0
 28 29  1  0  0  0  0
 29 30  1  0  0  0  0
 30 31  2  0  0  0  0
 30 32  1  0  0  0  0
M  END
>  <CdId>
224

>  <Mol Weight>
441.41

>  <Formula>
C23H18F3N3O3

>  <Molecule ChEMBL ID>
CHEMBL2204469

>  <Molecule Max Phase>
None

>  <Molecular Weight>
441.41

>  <#RO5 Violations>
0

>  <AlogP>
3.65

>  <Compound Key>
32

>  <Standard Type>
IC50

>  <Standard Relation>
'='

>  <Standard Value>
16000.0

>  <Standard Units>
nM

$$$$

  Mrv2114 03112311372D          

 24 26  0  0  0  0            999 V2000
    1.3222   -0.8866    0.0000 O   0  0  0  0  0  0  0  0  0  0  0  0
    2.0367   -1.2991    0.0000 C   0  0  0  0  0  0  0  0  0  0  0  0
    2.7512   -0.8866    0.0000 N   0  0  0  0  0  0  0  0  0  0  0  0
    2.7512   -0.0616    0.0000 C   0  0  0  0  0  0  0  0  0  0  0  0
    2.0367    0.3509    0.0000 C   0  0  0  0  0  0  0  0  0  0  0  0
    2.0367    1.1759    0.0000 C   0  0  0  0  0  0  0  0  0  0  0  0
    2.7512    1.5884    0.0000 C   0  0  0  0  0  0  0  0  0  0  0  0
    3.4656    1.1759    0.0000 C   0  0  0  0  0  0  0  0  0  0  0  0
    3.4656    0.3509    0.0000 C   0  0  0  0  0  0  0  0  0  0  0  0
    2.0367   -2.1241    0.0000 C   0  0  0  0  0  0  0  0  0  0  0  0
    2.7041   -2.6090    0.0000 N   0  0  0  0  0  0  0  0  0  0  0  0
    2.4492   -3.3937    0.0000 N   0  0  0  0  0  0  0  0  0  0  0  0
    1.6242   -3.3937    0.0000 C   0  0  0  0  0  0  0  0  0  0  0  0
    1.1393   -4.0611    0.0000 C   0  0  0  0  0  0  0  0  0  0  0  0
    0.3188   -3.9749    0.0000 S   0  0  0  0  0  0  0  0  0  0  0  0
    0.4050   -3.1544    0.0000 O   0  0  0  0  0  0  0  0  0  0  0  0
    0.2326   -4.7953    0.0000 O   0  0  0  0  0  0  0  0  0  0  0  0
   -0.5017   -3.8886    0.0000 C   0  0  0  0  0  0  0  0  0  0  0  0
   -0.9866   -4.5561    0.0000 C   0  0  0  0  0  0  0  0  0  0  0  0
   -1.8071   -4.4698    0.0000 C   0  0  0  0  0  0  0  0  0  0  0  0
   -2.1426   -3.7161    0.0000 C   0  0  0  0  0  0  0  0  0  0  0  0
   -1.6577   -3.0487    0.0000 C   0  0  0  0  0  0  0  0  0  0  0  0
   -0.8372   -3.1349    0.0000 C   0  0  0  0  0  0  0  0  0  0  0  0
    1.3693   -2.6090    0.0000 O   0  0  0  0  0  0  0  0  0  0  0  0
  1  2  2  0  0  0  0
  2  3  1  0  0  0  0
  3  4  1  0  0  0  0
  4  5  1  0  0  0  0
  5  6  1  0  0  0  0
  6  7  1  0  0  0  0
  7  8  1  0  0  0  0
  8  9  1  0  0  0  0
  4  9  1  0  0  0  0
  2 10  1  0  0  0  0
 10 11  4  0  0  0  0
 11 12  4  0  0  0  0
 12 13  4  0  0  0  0
 13 14  1  0  0  0  0
 14 15  1  0  0  0  0
 15 16  2  0  0  0  0
 15 17  2  0  0  0  0
 15 18  1  0  0  0  0
 18 19  4  0  0  0  0
 19 20  4  0  0  0  0
 20 21  4  0  0  0  0
 21 22  4  0  0  0  0
 22 23  4  0  0  0  0
 18 23  4  0  0  0  0
 13 24  4  0  0  0  0
 10 24  4  0  0  0  0
M  END
>  <CdId>
225

>  <Mol Weight>
349.41

>  <Formula>
C16H19N3O4S

>  <Molecule ChEMBL ID>
CHEMBL2069806

>  <Molecule Max Phase>
None

>  <Molecular Weight>
349.41

>  <#RO5 Violations>
0

>  <AlogP>
2.11

>  <Compound Key>
26

>  <Standard Type>
IC50

>  <Standard Relation>
'>'

>  <Standard Value>
20000.0

>  <Standard Units>
nM

$$$$

  Mrv2114 03112311372D          

 25 28  0  0  1  0            999 V2000
    0.5325   -2.0911    0.0000 C   0  0  0  0  0  0  0  0  0  0  0  0
   -0.1945   -1.7011    0.0000 C   0  0  0  0  0  0  0  0  0  0  0  0
   -0.8957   -2.1357    0.0000 C   0  0  0  0  0  0  0  0  0  0  0  0
   -0.2203   -0.8765    0.0000 C   0  0  2  0  0  0  0  0  0  0  0  0
   -0.2460   -0.0519    0.0000 O   0  0  0  0  0  0  0  0  0  0  0  0
    0.6043   -0.8508    0.0000 C   0  0  0  0  0  0  0  0  0  0  0  0
    0.9943   -0.1238    0.0000 C   0  0  0  0  0  0  0  0  0  0  0  0
    1.8189   -0.0980    0.0000 C   0  0  0  0  0  0  0  0  0  0  0  0
    2.2535   -0.7992    0.0000 C   0  0  0  0  0  0  0  0  0  0  0  0
    3.0781   -0.7735    0.0000 C   0  0  0  0  0  0  0  0  0  0  0  0
    3.5127   -1.4747    0.0000 C   0  0  0  0  0  0  0  0  0  0  0  0
    3.1228   -2.2017    0.0000 C   0  0  0  0  0  0  0  0  0  0  0  0
    2.2982   -2.2275    0.0000 C   0  0  0  0  0  0  0  0  0  0  0  0
    1.8636   -1.5262    0.0000 C   0  0  0  0  0  0  0  0  0  0  0  0
    1.0390   -1.5520    0.0000 C   0  0  0  0  0  0  0  0  0  0  0  0
    4.3140   -1.2781    0.0000 C   0  0  0  0  0  0  0  0  0  0  0  0
    4.9440   -1.8107    0.0000 O   0  0  0  0  0  0  0  0  0  0  0  0
    4.3745   -0.4553    0.0000 N   0  0  0  0  0  0  0  0  0  0  0  0
    5.0758   -0.0207    0.0000 C   0  0  0  0  0  0  0  0  0  0  0  0
    3.6108   -0.1434    0.0000 C   0  0  0  0  0  0  0  0  0  0  0  0
   -1.0449   -0.9023    0.0000 C   0  0  0  0  0  0  0  0  0  0  0  0
   -1.5087   -1.5845    0.0000 C   0  0  0  0  0  0  0  0  0  0  0  0
   -2.3009   -1.3542    0.0000 N   0  0  0  0  0  0  0  0  0  0  0  0
   -2.3267   -0.5296    0.0000 C   0  0  0  0  0  0  0  0  0  0  0  0
   -1.5504   -0.2503    0.0000 N   0  0  0  0  0  0  0  0  0  0  0  0
  1  2  1  0  0  0  0
  2  3  1  0  0  0  0
  4  2  1  0  0  0  0
  4  5  1  6  0  0  0
  4  6  1  0  0  0  0
  6  7  4  0  0  0  0
  7  8  4  0  0  0  0
  8  9  4  0  0  0  0
  9 10  4  0  0  0  0
 10 11  4  0  0  0  0
 11 12  4  0  0  0  0
 12 13  4  0  0  0  0
 13 14  4  0  0  0  0
  9 14  4  0  0  0  0
 14 15  4  0  0  0  0
  6 15  4  0  0  0  0
 11 16  1  0  0  0  0
 16 17  2  0  0  0  0
 16 18  1  0  0  0  0
 18 19  1  0  0  0  0
 18 20  1  0  0  0  0
 10 20  1  0  0  0  0
  4 21  1  1  0  0  0
 21 22  4  0  0  0  0
 22 23  4  0  0  0  0
 23 24  4  0  0  0  0
 24 25  4  0  0  0  0
 21 25  4  0  0  0  0
M  STY  1   1 DAT
M  SAL   1  1  23
M  SDT   1 MRV_IMPLICIT_H                                        
M  SDD   1     0.0000    0.0000    DR    ALL  0       0  
M  SED   1 IMPL_H1
M  END
>  <CdId>
226

>  <Mol Weight>
335.407

>  <Formula>
C20H21N3O2

>  <Molecule ChEMBL ID>
CHEMBL1682904

>  <Molecule Max Phase>
None

>  <Molecular Weight>
335.41

>  <#RO5 Violations>
0

>  <AlogP>
3.04

>  <Compound Key>
(-)-27b

>  <Standard Type>
IC50

>  <Standard Relation>
'='

>  <Standard Value>
28000.0

>  <Standard Units>
nM

$$$$

  Mrv2114 03112311372D          

 32 35  0  0  1  0            999 V2000
   -0.1712   -0.6979    0.0000 C   0  0  0  0  0  0  0  0  0  0  0  0
    0.6538   -0.6979    0.0000 C   0  0  0  0  0  0  0  0  0  0  0  0
    1.1387   -0.0305    0.0000 C   0  0  0  0  0  0  0  0  0  0  0  0
    1.9233   -0.2854    0.0000 C   0  0  0  0  0  0  0  0  0  0  0  0
    2.6378    0.1271    0.0000 C   0  0  0  0  0  0  0  0  0  0  0  0
    3.3523   -0.2854    0.0000 C   0  0  0  0  0  0  0  0  0  0  0  0
    4.0668    0.1271    0.0000 N   0  0  0  0  0  0  0  0  0  0  0  0
    4.0668    0.9521    0.0000 C   0  0  0  0  0  0  0  0  0  0  0  0
    4.7812    1.3646    0.0000 N   0  0  0  0  0  0  0  0  0  0  0  0
    4.7812    2.1896    0.0000 C   0  0  0  0  0  0  0  0  0  0  0  0
    4.7812    3.0146    0.0000 N   0  0  0  0  0  0  0  0  0  0  0  0
    3.3523    1.3646    0.0000 N   0  0  0  0  0  0  0  0  0  0  0  0
    3.3523    2.1896    0.0000 C   0  0  1  0  0  0  0  0  0  0  0  0
    4.0956    2.5475    0.0000 C   0  0  0  0  0  0  0  0  0  0  0  0
    4.2792    3.3518    0.0000 C   0  0  0  0  0  0  0  0  0  0  0  0
    3.7648    3.9968    0.0000 C   0  0  0  0  0  0  0  0  0  0  0  0
    2.9398    3.9968    0.0000 C   0  0  0  0  0  0  0  0  0  0  0  0
    2.4254    3.3518    0.0000 N   0  0  0  0  0  0  0  0  0  0  0  0
    1.6211    3.5354    0.0000 C   0  0  0  0  0  0  0  0  0  0  0  0
    1.0599    2.9306    0.0000 C   0  0  0  0  0  0  0  0  0  0  0  0
    1.3031    2.1423    0.0000 O   0  0  0  0  0  0  0  0  0  0  0  0
    0.2556    3.1142    0.0000 N   0  0  0  0  0  0  0  0  0  0  0  0
   -0.3657    2.5714    0.0000 C   0  0  0  0  0  0  0  0  0  0  0  0
   -1.0739    2.9946    0.0000 C   0  0  0  0  0  0  0  0  0  0  0  0
   -0.8903    3.7989    0.0000 C   0  0  0  0  0  0  0  0  0  0  0  0
   -0.0686    3.8728    0.0000 C   0  0  0  0  0  0  0  0  0  0  0  0
    2.6090    2.5475    0.0000 C   0  0  0  0  0  0  0  0  0  0  0  0
    1.9640    2.0331    0.0000 O   0  0  0  0  0  0  0  0  0  0  0  0
    3.3523   -1.1104    0.0000 C   0  0  0  0  0  0  0  0  0  0  0  0
    2.6378   -1.5229    0.0000 C   0  0  0  0  0  0  0  0  0  0  0  0
    1.9233   -1.1104    0.0000 C   0  0  0  0  0  0  0  0  0  0  0  0
    1.1387   -1.3654    0.0000 O   0  0  0  0  0  0  0  0  0  0  0  0
  1  2  1  0  0  0  0
  2  3  4  0  0  0  0
  3  4  4  0  0  0  0
  4  5  4  0  0  0  0
  5  6  4  0  0  0  0
  6  7  1  0  0  0  0
  7  8  2  0  0  0  0
  8  9  1  0  0  0  0
  9 10  1  0  0  0  0
 10 11  3  0  0  0  0
  8 12  1  0  0  0  0
 13 12  1  6  0  0  0
 13 14  1  0  0  0  0
 14 15  1  0  0  0  0
 15 16  1  0  0  0  0
 16 17  1  0  0  0  0
 17 18  1  0  0  0  0
 18 19  1  0  0  0  0
 19 20  1  0  0  0  0
 20 21  2  0  0  0  0
 20 22  1  0  0  0  0
 22 23  1  0  0  0  0
 23 24  1  0  0  0  0
 24 25  1  0  0  0  0
 25 26  1  0  0  0  0
 22 26  1  0  0  0  0
 18 27  1  0  0  0  0
 13 27  1  0  0  0  0
 27 28  2  0  0  0  0
  6 29  4  0  0  0  0
 29 30  4  0  0  0  0
 30 31  4  0  0  0  0
  4 31  4  0  0  0  0
 31 32  4  0  0  0  0
  2 32  4  0  0  0  0
M  END
>  <CdId>
227

>  <Mol Weight>
436.516

>  <Formula>
C23H28N6O3

>  <Molecule ChEMBL ID>
CHEMBL551991

>  <Molecule Max Phase>
None

>  <Molecular Weight>
436.52

>  <#RO5 Violations>
0

>  <AlogP>
2.39

>  <Compound Key>
4, BMS-269223

>  <Standard Type>
IC50

>  <Standard Relation>
'>'

>  <Standard Value>
40000.0

>  <Standard Units>
nM

$$$$

  Mrv2114 03112311372D          

 32 36  0  0  0  0            999 V2000
   -0.1712    0.7310    0.0000 N   0  0  0  0  0  0  0  0  0  0  0  0
   -0.5837    0.0165    0.0000 C   0  0  0  0  0  0  0  0  0  0  0  0
   -1.4087    0.0165    0.0000 N   0  0  0  0  0  0  0  0  0  0  0  0
   -1.8212   -0.6979    0.0000 C   0  0  0  0  0  0  0  0  0  0  0  0
   -1.4087   -1.4124    0.0000 C   0  0  0  0  0  0  0  0  0  0  0  0
   -0.5837   -1.4124    0.0000 C   0  0  0  0  0  0  0  0  0  0  0  0
   -0.1712   -0.6979    0.0000 C   0  0  0  0  0  0  0  0  0  0  0  0
    0.6538   -0.6979    0.0000 C   0  0  0  0  0  0  0  0  0  0  0  0
    1.1387   -0.0305    0.0000 N   0  0  0  0  0  0  0  0  0  0  0  0
    1.9233   -0.2854    0.0000 C   0  0  0  0  0  0  0  0  0  0  0  0
    2.6378    0.1271    0.0000 C   0  0  0  0  0  0  0  0  0  0  0  0
    3.3523   -0.2854    0.0000 C   0  0  0  0  0  0  0  0  0  0  0  0
    3.3523   -1.1104    0.0000 C   0  0  0  0  0  0  0  0  0  0  0  0
    2.6378   -1.5229    0.0000 N   0  0  0  0  0  0  0  0  0  0  0  0
    1.9233   -1.1104    0.0000 C   0  0  0  0  0  0  0  0  0  0  0  0
    1.1387   -1.3654    0.0000 N   0  0  0  0  0  0  0  0  0  0  0  0
    0.8838   -2.1500    0.0000 C   0  0  0  0  0  0  0  0  0  0  0  0
    1.4358   -2.7631    0.0000 C   0  0  0  0  0  0  0  0  0  0  0  0
    1.1809   -3.5477    0.0000 C   0  0  0  0  0  0  0  0  0  0  0  0
    0.3739   -3.7192    0.0000 C   0  0  0  0  0  0  0  0  0  0  0  0
    0.1190   -4.5039    0.0000 C   0  0  0  0  0  0  0  0  0  0  0  0
    0.6710   -5.1170    0.0000 N   0  0  0  0  0  0  0  0  0  0  0  0
    1.4780   -4.9454    0.0000 C   0  0  0  0  0  0  0  0  0  0  0  0
    1.7329   -4.1608    0.0000 O   0  0  0  0  0  0  0  0  0  0  0  0
    2.0300   -5.5585    0.0000 C   0  0  0  0  0  0  0  0  0  0  0  0
    2.8370   -5.3870    0.0000 C   0  0  0  0  0  0  0  0  0  0  0  0
    3.3890   -6.0001    0.0000 C   0  0  0  0  0  0  0  0  0  0  0  0
    3.1341   -6.7847    0.0000 C   0  0  0  0  0  0  0  0  0  0  0  0
    2.3271   -6.9562    0.0000 C   0  0  0  0  0  0  0  0  0  0  0  0
    1.7751   -6.3432    0.0000 C   0  0  0  0  0  0  0  0  0  0  0  0
   -0.1781   -3.1062    0.0000 C   0  0  0  0  0  0  0  0  0  0  0  0
    0.0768   -2.3215    0.0000 C   0  0  0  0  0  0  0  0  0  0  0  0
  1  2  1  0  0  0  0
  2  3  4  0  0  0  0
  3  4  4  0  0  0  0
  4  5  4  0  0  0  0
  5  6  4  0  0  0  0
  6  7  4  0  0  0  0
  2  7  4  0  0  0  0
  7  8  1  0  0  0  0
  8  9  4  0  0  0  0
  9 10  4  0  0  0  0
 10 11  4  0  0  0  0
 11 12  4  0  0  0  0
 12 13  4  0  0  0  0
 13 14  4  0  0  0  0
 14 15  4  0  0  0  0
 10 15  4  0  0  0  0
 15 16  4  0  0  0  0
  8 16  4  0  0  0  0
 16 17  1  0  0  0  0
 17 18  4  0  0  0  0
 18 19  4  0  0  0  0
 19 20  4  0  0  0  0
 20 21  1  0  0  0  0
 21 22  1  0  0  0  0
 22 23  1  0  0  0  0
 23 24  2  0  0  0  0
 23 25  1  0  0  0  0
 25 26  4  0  0  0  0
 26 27  4  0  0  0  0
 27 28  4  0  0  0  0
 28 29  4  0  0  0  0
 29 30  4  0  0  0  0
 25 30  4  0  0  0  0
 20 31  4  0  0  0  0
 31 32  4  0  0  0  0
 17 32  4  0  0  0  0
M  END
>  <CdId>
228

>  <Mol Weight>
420.476

>  <Formula>
C25H20N6O

>  <Molecule ChEMBL ID>
CHEMBL2177819

>  <Molecule Max Phase>
None

>  <Molecular Weight>
420.48

>  <#RO5 Violations>
0

>  <AlogP>
3.99

>  <Compound Key>
8a

>  <Standard Type>
IC50

>  <Standard Relation>
'>'

>  <Standard Value>
10000.0

>  <Standard Units>
nM

$$$$

  Mrv2114 03112311372D          

 28 31  0  0  0  0            999 V2000
    5.4896   -1.6384    0.0000 O   0  0  0  0  0  0  0  0  0  0  0  0
    5.6358   -0.8265    0.0000 C   0  0  0  0  0  0  0  0  0  0  0  0
    5.0058   -0.2939    0.0000 C   0  0  0  0  0  0  0  0  0  0  0  0
    4.2295   -0.5732    0.0000 C   0  0  0  0  0  0  0  0  0  0  0  0
    3.5995   -0.0406    0.0000 C   0  0  0  0  0  0  0  0  0  0  0  0
    3.6601    0.7822    0.0000 N   0  0  0  0  0  0  0  0  0  0  0  0
    2.8963    1.0941    0.0000 N   0  0  0  0  0  0  0  0  0  0  0  0
    2.3637    0.4640    0.0000 C   0  0  0  0  0  0  0  0  0  0  0  0
    2.7983   -0.2372    0.0000 C   0  0  0  0  0  0  0  0  0  0  0  0
    2.4083   -0.9642    0.0000 C   0  0  0  0  0  0  0  0  0  0  0  0
    1.5837   -0.9900    0.0000 C   0  0  0  0  0  0  0  0  0  0  0  0
    1.1491   -0.2887    0.0000 C   0  0  0  0  0  0  0  0  0  0  0  0
    0.3245   -0.3145    0.0000 C   0  0  0  0  0  0  0  0  0  0  0  0
   -0.1101    0.3867    0.0000 C   0  0  0  0  0  0  0  0  0  0  0  0
   -0.9347    0.3610    0.0000 O   0  0  0  0  0  0  0  0  0  0  0  0
    0.2799    1.1137    0.0000 C   0  0  0  0  0  0  0  0  0  0  0  0
    1.1045    1.1395    0.0000 C   0  0  0  0  0  0  0  0  0  0  0  0
    1.5391    0.4383    0.0000 C   0  0  0  0  0  0  0  0  0  0  0  0
    6.4121   -0.5472    0.0000 N   0  0  0  0  0  0  0  0  0  0  0  0
    7.0422   -1.0798    0.0000 C   0  0  0  0  0  0  0  0  0  0  0  0
    6.8959   -1.8917    0.0000 C   0  0  0  0  0  0  0  0  0  0  0  0
    7.5259   -2.4243    0.0000 C   0  0  0  0  0  0  0  0  0  0  0  0
    8.3022   -2.1450    0.0000 C   0  0  0  0  0  0  0  0  0  0  0  0
    8.4485   -1.3331    0.0000 C   0  0  0  0  0  0  0  0  0  0  0  0
    7.8184   -0.8005    0.0000 C   0  0  0  0  0  0  0  0  0  0  0  0
    7.9647    0.0115    0.0000 C   0  0  0  0  0  0  0  0  0  0  0  0
    7.3346    0.5441    0.0000 O   0  0  0  0  0  0  0  0  0  0  0  0
    8.7410    0.2908    0.0000 O   0  0  0  0  0  0  0  0  0  0  0  0
  1  2  2  0  0  0  0
  2  3  1  0  0  0  0
  3  4  1  0  0  0  0
  4  5  1  0  0  0  0
  5  6  4  0  0  0  0
  6  7  4  0  0  0  0
  7  8  4  0  0  0  0
  8  9  4  0  0  0  0
  5  9  4  0  0  0  0
  9 10  4  0  0  0  0
 10 11  4  0  0  0  0
 11 12  4  0  0  0  0
 12 13  4  0  0  0  0
 13 14  4  0  0  0  0
 14 15  1  0  0  0  0
 14 16  4  0  0  0  0
 16 17  4  0  0  0  0
 17 18  4  0  0  0  0
 12 18  4  0  0  0  0
  8 18  4  0  0  0  0
  2 19  1  0  0  0  0
 19 20  1  0  0  0  0
 20 21  4  0  0  0  0
 21 22  4  0  0  0  0
 22 23  4  0  0  0  0
 23 24  4  0  0  0  0
 24 25  4  0  0  0  0
 20 25  4  0  0  0  0
 25 26  1  0  0  0  0
 26 27  2  0  0  0  0
 26 28  1  0  0  0  0
M  STY  1   1 DAT
M  SAL   1  1   6
M  SDT   1 MRV_IMPLICIT_H                                        
M  SDD   1     0.0000    0.0000    DR    ALL  0       0  
M  SED   1 IMPL_H1
M  END
>  <CdId>
229

>  <Mol Weight>
375.384

>  <Formula>
C21H17N3O4

>  <Molecule ChEMBL ID>
CHEMBL483352

>  <Molecule Max Phase>
None

>  <Molecular Weight>
375.38

>  <#RO5 Violations>
0

>  <AlogP>
3.69

>  <Compound Key>
2d

>  <Standard Type>
IC50

>  <Standard Relation>
'='

>  <Standard Value>
5800.0

>  <Standard Units>
nM

$$$$

  Mrv2114 03112311372D          

 31 34  0  0  0  0            999 V2000
    1.1270    2.5559    0.0000 C   0  0  0  0  0  0  0  0  0  0  0  0
    1.5395    1.8414    0.0000 N   0  0  0  0  0  0  0  0  0  0  0  0
    2.3645    1.8414    0.0000 C   0  0  0  0  0  0  0  0  0  0  0  0
    2.7770    2.5559    0.0000 O   0  0  0  0  0  0  0  0  0  0  0  0
    2.7770    1.1270    0.0000 C   0  0  0  0  0  0  0  0  0  0  0  0
    3.6020    1.1270    0.0000 C   0  0  0  0  0  0  0  0  0  0  0  0
    4.0145    0.4125    0.0000 C   0  0  0  0  0  0  0  0  0  0  0  0
    4.8395    0.4125    0.0000 O   0  0  0  0  0  0  0  0  0  0  0  0
    3.6020   -0.3020    0.0000 C   0  0  0  0  0  0  0  0  0  0  0  0
    2.7770   -0.3020    0.0000 C   0  0  0  0  0  0  0  0  0  0  0  0
    2.3645    0.4125    0.0000 C   0  0  0  0  0  0  0  0  0  0  0  0
    1.5395    0.4125    0.0000 C   0  0  0  0  0  0  0  0  0  0  0  0
    1.1270   -0.3020    0.0000 C   0  0  0  0  0  0  0  0  0  0  0  0
    0.3020   -0.3020    0.0000 C   0  0  0  0  0  0  0  0  0  0  0  0
   -0.1105    0.4125    0.0000 C   0  0  0  0  0  0  0  0  0  0  0  0
   -0.9355    0.4125    0.0000 C   0  0  0  0  0  0  0  0  0  0  0  0
   -1.3480   -0.3020    0.0000 C   0  0  0  0  0  0  0  0  0  0  0  0
   -2.1730   -0.3020    0.0000 C   0  0  0  0  0  0  0  0  0  0  0  0
   -2.5855    0.4125    0.0000 O   0  0  0  0  0  0  0  0  0  0  0  0
   -2.5855   -1.0164    0.0000 N   0  0  0  0  0  0  0  0  0  0  0  0
   -3.4105   -1.0164    0.0000 C   0  0  0  0  0  0  0  0  0  0  0  0
   -3.8230   -0.3020    0.0000 C   0  0  0  0  0  0  0  0  0  0  0  0
   -4.6480   -0.3020    0.0000 C   0  0  0  0  0  0  0  0  0  0  0  0
   -5.0605   -1.0164    0.0000 C   0  0  0  0  0  0  0  0  0  0  0  0
   -4.6480   -1.7309    0.0000 C   0  0  0  0  0  0  0  0  0  0  0  0
   -3.8230   -1.7309    0.0000 C   0  0  0  0  0  0  0  0  0  0  0  0
   -3.4105   -2.4454    0.0000 C   0  0  0  0  0  0  0  0  0  0  0  0
   -2.5855   -2.4454    0.0000 O   0  0  0  0  0  0  0  0  0  0  0  0
   -3.8230   -3.1599    0.0000 O   0  0  0  0  0  0  0  0  0  0  0  0
    0.3020    1.1270    0.0000 C   0  0  0  0  0  0  0  0  0  0  0  0
    1.1270    1.1270    0.0000 C   0  0  0  0  0  0  0  0  0  0  0  0
  1  2  1  0  0  0  0
  2  3  4  0  0  0  0
  3  4  2  0  0  0  0
  3  5  4  0  0  0  0
  5  6  4  0  0  0  0
  6  7  4  0  0  0  0
  7  8  1  0  0  0  0
  7  9  4  0  0  0  0
  9 10  4  0  0  0  0
 10 11  4  0  0  0  0
  5 11  4  0  0  0  0
 11 12  4  0  0  0  0
 12 13  4  0  0  0  0
 13 14  4  0  0  0  0
 14 15  4  0  0  0  0
 15 16  1  0  0  0  0
 16 17  1  0  0  0  0
 17 18  1  0  0  0  0
 18 19  2  0  0  0  0
 18 20  1  0  0  0  0
 20 21  1  0  0  0  0
 21 22  4  0  0  0  0
 22 23  4  0  0  0  0
 23 24  4  0  0  0  0
 24 25  4  0  0  0  0
 25 26  4  0  0  0  0
 21 26  4  0  0  0  0
 26 27  1  0  0  0  0
 27 28  2  0  0  0  0
 27 29  1  0  0  0  0
 15 30  4  0  0  0  0
 30 31  4  0  0  0  0
 12 31  4  0  0  0  0
  2 31  4  0  0  0  0
M  END
>  <CdId>
230

>  <Mol Weight>
416.433

>  <Formula>
C24H20N2O5

>  <Molecule ChEMBL ID>
CHEMBL485184

>  <Molecule Max Phase>
None

>  <Molecular Weight>
416.43

>  <#RO5 Violations>
0

>  <AlogP>
3.67

>  <Compound Key>
2o

>  <Standard Type>
IC50

$$$$

  Mrv2114 03112311372D          

 36 40  0  0  1  0            999 V2000
   -0.1830   -5.6495    0.0000 C   0  0  0  0  0  0  0  0  0  0  0  0
    0.3020   -4.9820    0.0000 C   0  0  0  0  0  0  0  0  0  0  0  0
    0.0470   -4.1974    0.0000 C   0  0  0  0  0  0  0  0  0  0  0  0
    0.7145   -3.7125    0.0000 C   0  0  0  0  0  0  0  0  0  0  0  0
    0.7145   -2.8875    0.0000 C   0  0  0  0  0  0  0  0  0  0  0  0
    0.0000   -2.4750    0.0000 O   0  0  0  0  0  0  0  0  0  0  0  0
    1.4289   -2.4750    0.0000 N   0  0  0  0  0  0  0  0  0  0  0  0
    1.4289   -1.6500    0.0000 C   0  0  2  0  0  0  0  0  0  0  0  0
    0.7145   -1.2375    0.0000 C   0  0  0  0  0  0  0  0  0  0  0  0
    0.7145   -0.4125    0.0000 C   0  0  0  0  0  0  0  0  0  0  0  0
    0.4323    0.3627    0.0000 C   0  0  0  0  0  0  0  0  0  0  0  0
   -0.0980   -0.5558    0.0000 C   0  0  0  0  0  0  0  0  0  0  0  0
    1.4289    0.0000    0.0000 O   0  0  0  0  0  0  0  0  0  0  0  0
    2.1434   -0.4125    0.0000 C   0  0  0  0  0  0  0  0  0  0  0  0
    2.8579    0.0000    0.0000 N   0  0  0  0  0  0  0  0  0  0  0  0
    3.5724   -0.4125    0.0000 C   0  0  0  0  0  0  0  0  0  0  0  0
    4.2868   -0.0000    0.0000 C   0  0  0  0  0  0  0  0  0  0  0  0
    5.0013   -0.4125    0.0000 C   0  0  0  0  0  0  0  0  0  0  0  0
    5.7158   -0.0000    0.0000 C   0  0  0  0  0  0  0  0  0  0  0  0
    5.7158    0.8250    0.0000 C   0  0  0  0  0  0  0  0  0  0  0  0
    6.4302    1.2375    0.0000 Cl  0  0  0  0  0  0  0  0  0  0  0  0
    5.0013    1.2375    0.0000 C   0  0  0  0  0  0  0  0  0  0  0  0
    4.2868    0.8250    0.0000 C   0  0  0  0  0  0  0  0  0  0  0  0
    3.5724    1.2375    0.0000 Cl  0  0  0  0  0  0  0  0  0  0  0  0
    3.5724   -1.2375    0.0000 C   0  0  0  0  0  0  0  0  0  0  0  0
    4.2868   -1.6500    0.0000 C   0  0  0  0  0  0  0  0  0  0  0  0
    5.0013   -1.2375    0.0000 C   0  0  0  0  0  0  0  0  0  0  0  0
    5.7158   -1.6500    0.0000 C   0  0  0  0  0  0  0  0  0  0  0  0
    5.7158   -2.4750    0.0000 C   0  0  0  0  0  0  0  0  0  0  0  0
    6.4302   -2.8875    0.0000 Cl  0  0  0  0  0  0  0  0  0  0  0  0
    5.0013   -2.8875    0.0000 C   0  0  0  0  0  0  0  0  0  0  0  0
    4.2868   -2.4750    0.0000 C   0  0  0  0  0  0  0  0  0  0  0  0
    2.8579   -1.6500    0.0000 C   0  0  0  0  0  0  0  0  0  0  0  0
    2.1434   -1.2375    0.0000 C   0  0  0  0  0  0  0  0  0  0  0  0
    1.3819   -4.1974    0.0000 N   0  0  0  0  0  0  0  0  0  0  0  0
    1.1270   -4.9820    0.0000 N   0  0  0  0  0  0  0  0  0  0  0  0
  1  2  1  0  0  0  0
  2  3  4  0  0  0  0
  3  4  4  0  0  0  0
  4  5  1  0  0  0  0
  5  6  2  0  0  0  0
  5  7  1  0  0  0  0
  8  7  1  6  0  0  0
  8  9  1  0  0  0  0
  9 10  1  0  0  0  0
 10 11  1  0  0  0  0
 10 12  1  0  0  0  0
 10 13  1  0  0  0  0
 13 14  1  0  0  0  0
 14 15  4  0  0  0  0
 15 16  4  0  0  0  0
 16 17  1  0  0  0  0
 17 18  4  0  0  0  0
 18 19  4  0  0  0  0
 19 20  4  0  0  0  0
 20 21  1  0  0  0  0
 20 22  4  0  0  0  0
 22 23  4  0  0  0  0
 17 23  4  0  0  0  0
 23 24  1  0  0  0  0
 16 25  4  0  0  0  0
 25 26  1  0  0  0  0
 26 27  4  0  0  0  0
 27 28  4  0  0  0  0
 28 29  4  0  0  0  0
 29 30  1  0  0  0  0
 29 31  4  0  0  0  0
 31 32  4  0  0  0  0
 26 32  4  0  0  0  0
 25 33  4  0  0  0  0
 33 34  4  0  0  0  0
 14 34  4  0  0  0  0
  8 34  1  0  0  0  0
  4 35  4  0  0  0  0
 35 36  4  0  0  0  0
  2 36  4  0  0  0  0
M  STY  1   1 DAT
M  SAL   1  1  36
M  SDT   1 MRV_IMPLICIT_H                                        
M  SDD   1     0.0000    0.0000    DR    ALL  0       0  
M  SED   1 IMPL_H1
M  END
>  <CdId>
231

>  <Mol Weight>
541.86

>  <Formula>
C27H23Cl3N4O2

>  <Molecule ChEMBL ID>
CHEMBL1096182

>  <Molecule Max Phase>
None

>  <Molecular Weight>
541.87

>  <#RO5 Violations>
2

>  <AlogP>
7.44

>  <Compound Key>
12C

>  <Standard Type>
IC50

>  <Standard Relation>
'='

>  <Standard Value>
11000.0

>  <Standard Units>
nM

$$$$

  Mrv2114 03112311372D          

 31 34  0  0  1  0            999 V2000
   -2.1349   -0.6674    0.0000 C   0  0  0  0  0  0  0  0  0  0  0  0
   -1.3099   -0.6674    0.0000 S   0  0  0  0  0  0  0  0  0  0  0  0
   -1.3099   -1.4924    0.0000 O   0  0  0  0  0  0  0  0  0  0  0  0
   -1.3099    0.1576    0.0000 O   0  0  0  0  0  0  0  0  0  0  0  0
   -0.4849   -0.6674    0.0000 N   0  0  0  0  0  0  0  0  0  0  0  0
   -0.0000   -1.3349    0.0000 C   0  0  0  0  0  0  0  0  0  0  0  0
    0.7846   -1.0799    0.0000 C   0  0  0  0  0  0  0  0  0  0  0  0
    0.7846   -0.2549    0.0000 C   0  0  0  0  0  0  0  0  0  0  0  0
   -0.0000    0.0000    0.0000 N   0  0  0  0  0  0  0  0  0  0  0  0
    1.5692    0.0000    0.0000 C   0  0  0  0  0  0  0  0  0  0  0  0
    2.0542   -0.6674    0.0000 N   0  0  0  0  0  0  0  0  0  0  0  0
    2.8792   -0.6674    0.0000 C   0  0  2  0  0  0  0  0  0  0  0  0
    3.2917    0.0470    0.0000 C   0  0  0  0  0  0  0  0  0  0  0  0
    4.1167    0.0470    0.0000 C   0  0  2  0  0  0  0  0  0  0  0  0
    4.5292    0.7615    0.0000 N   0  0  0  0  0  0  0  0  0  0  0  0
    4.5292   -0.6674    0.0000 C   0  0  1  0  0  0  0  0  0  0  0  0
    5.3542   -0.6674    0.0000 C   0  0  0  0  0  0  0  0  0  0  0  0
    5.7667    0.0470    0.0000 C   0  0  0  0  0  0  0  0  0  0  0  0
    6.5917    0.0470    0.0000 C   0  0  0  0  0  0  0  0  0  0  0  0
    7.0042    0.7615    0.0000 F   0  0  0  0  0  0  0  0  0  0  0  0
    7.0042   -0.6674    0.0000 C   0  0  0  0  0  0  0  0  0  0  0  0
    6.5917   -1.3819    0.0000 C   0  0  0  0  0  0  0  0  0  0  0  0
    5.7667   -1.3819    0.0000 C   0  0  0  0  0  0  0  0  0  0  0  0
    5.3542   -2.0964    0.0000 F   0  0  0  0  0  0  0  0  0  0  0  0
    4.1167   -1.3819    0.0000 O   0  0  0  0  0  0  0  0  0  0  0  0
    3.2917   -1.3819    0.0000 C   0  0  2  0  0  0  0  0  0  0  0  0
    2.8792   -2.0964    0.0000 C   0  0  0  0  0  0  0  0  0  0  0  0
    2.4667   -2.8109    0.0000 F   0  0  0  0  0  0  0  0  0  0  0  0
    2.1647   -1.6839    0.0000 F   0  0  0  0  0  0  0  0  0  0  0  0
    3.5936   -2.5089    0.0000 F   0  0  0  0  0  0  0  0  0  0  0  0
    1.5692   -1.3349    0.0000 C   0  0  0  0  0  0  0  0  0  0  0  0
  1  2  1  0  0  0  0
  2  3  2  0  0  0  0
  2  4  2  0  0  0  0
  2  5  1  0  0  0  0
  5  6  4  0  0  0  0
  6  7  4  0  0  0  0
  7  8  4  0  0  0  0
  8  9  4  0  0  0  0
  5  9  4  0  0  0  0
  8 10  1  0  0  0  0
 10 11  1  0  0  0  0
 12 11  1  6  0  0  0
 12 13  1  0  0  0  0
 14 13  1  0  0  0  0
 14 15  1  6  0  0  0
 14 16  1  0  0  0  0
 16 17  1  1  0  0  0
 17 18  4  0  0  0  0
 18 19  4  0  0  0  0
 19 20  1  0  0  0  0
 19 21  4  0  0  0  0
 21 22  4  0  0  0  0
 22 23  4  0  0  0  0
 17 23  4  0  0  0  0
 23 24  1  0  0  0  0
 16 25  1  0  0  0  0
 26 25  1  0  0  0  0
 12 26  1  0  0  0  0
 26 27  1  6  0  0  0
 27 28  1  0  0  0  0
 27 29  1  0  0  0  0
 27 30  1  0  0  0  0
 11 31  1  0  0  0  0
  7 31  1  0  0  0  0
M  END
>  <CdId>
232

>  <Mol Weight>
466.43

>  <Formula>
C18H19F5N4O3S

>  <Molecule ChEMBL ID>
CHEMBL4646510

>  <Molecule Name>
COFROGLIPTIN

>  <Molecule Max Phase>
-1

>  <Molecular Weight>
466.43

>  <#RO5 Violations>
0

>  <AlogP>
2.07

>  <Compound Key>
2; Haisco HSK7653

>  <Standard Type>
IC50

>  <Standard Relation>
'>'

>  <Standard Value>
100000.0

>  <Standard Units>
nM

$$$$

  Mrv2114 03112311372D          

 32 36  0  0  0  0            999 V2000
    4.0133   -1.0477    0.0000 C   0  0  0  0  0  0  0  0  0  0  0  0
    3.6777   -0.2941    0.0000 N   0  0  0  0  0  0  0  0  0  0  0  0
    2.8708   -0.1225    0.0000 C   0  0  0  0  0  0  0  0  0  0  0  0
    2.7845    0.6979    0.0000 C   0  0  0  0  0  0  0  0  0  0  0  0
    2.0701    1.1104    0.0000 C   0  0  0  0  0  0  0  0  0  0  0  0
    1.3556    0.6979    0.0000 N   0  0  0  0  0  0  0  0  0  0  0  0
    0.6411    1.1104    0.0000 C   0  0  0  0  0  0  0  0  0  0  0  0
   -0.1435    0.8555    0.0000 C   0  0  0  0  0  0  0  0  0  0  0  0
   -0.3984    0.0709    0.0000 C   0  0  0  0  0  0  0  0  0  0  0  0
    0.1536   -0.5422    0.0000 C   0  0  0  0  0  0  0  0  0  0  0  0
   -0.1014   -1.3268    0.0000 C   0  0  0  0  0  0  0  0  0  0  0  0
   -0.9083   -1.4984    0.0000 N   0  0  0  0  0  0  0  0  0  0  0  0
   -1.4604   -0.8853    0.0000 C   0  0  0  0  0  0  0  0  0  0  0  0
   -2.2673   -1.0568    0.0000 O   0  0  0  0  0  0  0  0  0  0  0  0
   -2.5223   -1.8414    0.0000 C   0  0  0  0  0  0  0  0  0  0  0  0
   -2.3507   -2.6484    0.0000 C   0  0  0  0  0  0  0  0  0  0  0  0
   -3.1354   -2.3934    0.0000 C   0  0  0  0  0  0  0  0  0  0  0  0
   -1.2054   -0.1006    0.0000 C   0  0  0  0  0  0  0  0  0  0  0  0
   -0.6284    1.5229    0.0000 C   0  0  0  0  0  0  0  0  0  0  0  0
   -0.1435    2.1904    0.0000 N   0  0  0  0  0  0  0  0  0  0  0  0
    0.6411    1.9354    0.0000 N   0  0  0  0  0  0  0  0  0  0  0  0
    1.3556    2.3479    0.0000 C   0  0  0  0  0  0  0  0  0  0  0  0
    2.0701    1.9354    0.0000 C   0  0  0  0  0  0  0  0  0  0  0  0
    2.7845    2.3479    0.0000 O   0  0  0  0  0  0  0  0  0  0  0  0
    2.7845    3.1729    0.0000 C   0  0  0  0  0  0  0  0  0  0  0  0
    3.4990    3.5854    0.0000 C   0  0  0  0  0  0  0  0  0  0  0  0
    3.4990    4.4104    0.0000 C   0  0  0  0  0  0  0  0  0  0  0  0
    3.4990    5.2354    0.0000 C   0  0  0  0  0  0  0  0  0  0  0  0
    4.3240    4.4104    0.0000 C   0  0  0  0  0  0  0  0  0  0  0  0
    2.6740    4.4104    0.0000 O   0  0  0  0  0  0  0  0  0  0  0  0
    3.5382    1.0335    0.0000 C   0  0  0  0  0  0  0  0  0  0  0  0
    4.0902    0.4204    0.0000 N   0  0  0  0  0  0  0  0  0  0  0  0
  1  2  1  0  0  0  0
  2  3  4  0  0  0  0
  3  4  4  0  0  0  0
  4  5  1  0  0  0  0
  5  6  4  0  0  0  0
  6  7  4  0  0  0  0
  7  8  4  0  0  0  0
  8  9  1  0  0  0  0
  9 10  4  0  0  0  0
 10 11  4  0  0  0  0
 11 12  4  0  0  0  0
 12 13  4  0  0  0  0
 13 14  1  0  0  0  0
 14 15  1  0  0  0  0
 15 16  1  0  0  0  0
 16 17  1  0  0  0  0
 15 17  1  0  0  0  0
 13 18  4  0  0  0  0
  9 18  4  0  0  0  0
  8 19  4  0  0  0  0
 19 20  4  0  0  0  0
 20 21  4  0  0  0  0
  7 21  4  0  0  0  0
 21 22  4  0  0  0  0
 22 23  4  0  0  0  0
  5 23  4  0  0  0  0
 23 24  1  0  0  0  0
 24 25  1  0  0  0  0
 25 26  1  0  0  0  0
 26 27  1  0  0  0  0
 27 28  1  0  0  0  0
 27 29  1  0  0  0  0
 27 30  1  0  0  0  0
  4 31  4  0  0  0  0
 31 32  4  0  0  0  0
  2 32  4  0  0  0  0
M  END
>  <CdId>
233

>  <Mol Weight>
434.5

>  <Formula>
C23H26N6O3

>  <Molecule ChEMBL ID>
CHEMBL4751832

>  <Molecule Max Phase>
None

>  <Molecular Weight>
434.5

>  <#RO5 Violations>
0

>  <AlogP>
3.27

>  <Compound Key>
29

>  <Standard Type>
IC50

>  <Standard Relation>
'>'

>  <Standard Value>
10000.0

>  <Standard Units>
nM

$$$$

  Mrv2114 03112311372D          

 25 27  0  0  1  0            999 V2000
    0.0000    0.0000    0.0000 Cl  0  0  0  0  0  0  0  0  0  0  0  0
    4.3412    2.1828    0.0000 F   0  0  0  0  0  0  0  0  0  0  0  0
    5.0556    1.7703    0.0000 C   0  0  0  0  0  0  0  0  0  0  0  0
    5.7701    2.1828    0.0000 C   0  0  0  0  0  0  0  0  0  0  0  0
    6.4846    1.7703    0.0000 C   0  0  0  0  0  0  0  0  0  0  0  0
    6.4846    0.9453    0.0000 C   0  0  0  0  0  0  0  0  0  0  0  0
    7.1990    0.5328    0.0000 C   0  0  2  0  0  0  0  0  0  0  0  0
    7.9135    0.9453    0.0000 C   0  0  0  0  0  0  0  0  0  0  0  0
    8.6280    0.5328    0.0000 C   0  0  0  0  0  0  0  0  0  0  0  0
    8.6280   -0.2922    0.0000 N   0  0  0  0  0  0  0  0  0  0  0  0
    7.9135   -0.7047    0.0000 C   0  0  0  0  0  0  0  0  0  0  0  0
    7.1990   -0.2922    0.0000 C   0  0  1  0  0  0  0  0  0  0  0  0
    6.4846   -0.7047    0.0000 C   0  0  0  0  0  0  0  0  0  0  0  0
    5.7701   -0.2922    0.0000 O   0  0  0  0  0  0  0  0  0  0  0  0
    5.0556   -0.7047    0.0000 C   0  0  0  0  0  0  0  0  0  0  0  0
    5.0556   -1.5297    0.0000 C   0  0  0  0  0  0  0  0  0  0  0  0
    4.3412   -1.9422    0.0000 C   0  0  0  0  0  0  0  0  0  0  0  0
    3.6267   -1.5297    0.0000 C   0  0  0  0  0  0  0  0  0  0  0  0
    3.6267   -0.7047    0.0000 C   0  0  0  0  0  0  0  0  0  0  0  0
    4.3412   -0.2922    0.0000 C   0  0  0  0  0  0  0  0  0  0  0  0
    2.8421   -0.4497    0.0000 O   0  0  0  0  0  0  0  0  0  0  0  0
    2.3571   -1.1172    0.0000 C   0  0  0  0  0  0  0  0  0  0  0  0
    2.8421   -1.7846    0.0000 O   0  0  0  0  0  0  0  0  0  0  0  0
    5.7701    0.5328    0.0000 C   0  0  0  0  0  0  0  0  0  0  0  0
    5.0556    0.9453    0.0000 C   0  0  0  0  0  0  0  0  0  0  0  0
  2  3  1  0  0  0  0
  3  4  4  0  0  0  0
  4  5  4  0  0  0  0
  5  6  4  0  0  0  0
  7  6  1  6  0  0  0
  7  8  1  0  0  0  0
  8  9  1  0  0  0  0
  9 10  1  0  0  0  0
 10 11  1  0  0  0  0
 12 11  1  0  0  0  0
  7 12  1  0  0  0  0
 12 13  1  1  0  0  0
 13 14  1  0  0  0  0
 14 15  1  0  0  0  0
 15 16  4  0  0  0  0
 16 17  4  0  0  0  0
 17 18  4  0  0  0  0
 18 19  4  0  0  0  0
 19 20  4  0  0  0  0
 15 20  4  0  0  0  0
 19 21  1  0  0  0  0
 21 22  1  0  0  0  0
 22 23  1  0  0  0  0
 18 23  1  0  0  0  0
  6 24  4  0  0  0  0
 24 25  4  0  0  0  0
  3 25  4  0  0  0  0
M  END
>  <CdId>
234

>  <Mol Weight>
365.83

>  <Formula>
C19H21ClFNO3

>  <Molecule ChEMBL ID>
CHEMBL1708

>  <Molecule Name>
PAROXETINE HYDROCHLORIDE

>  <Molecule Max Phase>
4

>  <Molecular Weight>
365.83

>  <#RO5 Violations>
0

>  <AlogP>
3.33

>  <Compound Key>
Paroxetine

>  <Standard Type>
IC50

>  <Standard Relation>
'>'

>  <Standard Value>
30000.0

>  <Standard Units>
nM

$$$$

  Mrv2114 03112311372D          

 22 24  0  0  0  0            999 V2000
    7.7858   -0.5396    0.0000 C   0  0  0  0  0  0  0  0  0  0  0  0
    7.0714   -0.1271    0.0000 O   0  0  0  0  0  0  0  0  0  0  0  0
    6.3569   -0.5396    0.0000 C   0  0  0  0  0  0  0  0  0  0  0  0
    6.3569   -1.3646    0.0000 O   0  0  0  0  0  0  0  0  0  0  0  0
    5.6424   -0.1271    0.0000 C   0  0  0  0  0  0  0  0  0  0  0  0
    4.9279   -0.5396    0.0000 C   0  0  0  0  0  0  0  0  0  0  0  0
    4.2135   -0.1271    0.0000 C   0  0  0  0  0  0  0  0  0  0  0  0
    4.2135    0.6979    0.0000 C   0  0  0  0  0  0  0  0  0  0  0  0
    3.4990    1.1104    0.0000 C   0  0  0  0  0  0  0  0  0  0  0  0
    2.7845    0.6979    0.0000 S   0  0  0  0  0  0  0  0  0  0  0  0
    2.0701    1.1104    0.0000 C   0  0  0  0  0  0  0  0  0  0  0  0
    1.3556    0.6979    0.0000 N   0  0  0  0  0  0  0  0  0  0  0  0
    0.6411    1.1104    0.0000 C   0  0  0  0  0  0  0  0  0  0  0  0
    0.6411    1.9354    0.0000 C   0  0  0  0  0  0  0  0  0  0  0  0
    1.3556    2.3479    0.0000 C   0  0  0  0  0  0  0  0  0  0  0  0
    1.3556    3.1729    0.0000 O   0  0  0  0  0  0  0  0  0  0  0  0
    2.0701    1.9354    0.0000 N   0  0  0  0  0  0  0  0  0  0  0  0
   -0.1435    2.1904    0.0000 C   0  0  0  0  0  0  0  0  0  0  0  0
   -0.6284    1.5229    0.0000 C   0  0  0  0  0  0  0  0  0  0  0  0
   -0.1435    0.8555    0.0000 C   0  0  0  0  0  0  0  0  0  0  0  0
    4.9279    1.1104    0.0000 C   0  0  0  0  0  0  0  0  0  0  0  0
    5.6424    0.6979    0.0000 C   0  0  0  0  0  0  0  0  0  0  0  0
  1  2  1  0  0  0  0
  2  3  1  0  0  0  0
  3  4  2  0  0  0  0
  3  5  1  0  0  0  0
  5  6  4  0  0  0  0
  6  7  4  0  0  0  0
  7  8  4  0  0  0  0
  8  9  1  0  0  0  0
  9 10  1  0  0  0  0
 10 11  1  0  0  0  0
 11 12  4  0  0  0  0
 12 13  4  0  0  0  0
 13 14  4  0  0  0  0
 14 15  4  0  0  0  0
 15 16  2  0  0  0  0
 15 17  4  0  0  0  0
 11 17  4  0  0  0  0
 14 18  1  0  0  0  0
 18 19  1  0  0  0  0
 19 20  1  0  0  0  0
 13 20  1  0  0  0  0
  8 21  4  0  0  0  0
 21 22  4  0  0  0  0
  5 22  4  0  0  0  0
M  STY  1   1 DAT
M  SAL   1  1  17
M  SDT   1 MRV_IMPLICIT_H                                        
M  SDD   1     0.0000    0.0000    DR    ALL  0       0  
M  SED   1 IMPL_H1
M  END
>  <CdId>
235

>  <Mol Weight>
316.38

>  <Formula>
C16H16N2O3S

>  <Molecule ChEMBL ID>
CHEMBL1515648

>  <Molecule Max Phase>
None

>  <Molecular Weight>
316.38

>  <#RO5 Violations>
0

>  <AlogP>
2.34

>  <Compound Key>
3

>  <Standard Type>
IC50

>  <Standard Relation>
'>'

>  <Standard Value>
20000.0

>  <Standard Units>
nM

$$$$

  Mrv2114 03112311372D          

 25 28  0  0  0  0            999 V2000
    6.8341    1.8712    0.0000 C   0  0  0  0  0  0  0  0  0  0  0  0
    6.0136    1.7850    0.0000 C   0  0  0  0  0  0  0  0  0  0  0  0
    5.4615    2.3981    0.0000 C   0  0  0  0  0  0  0  0  0  0  0  0
    4.7079    2.0625    0.0000 C   0  0  0  0  0  0  0  0  0  0  0  0
    3.9934    2.4750    0.0000 C   0  0  0  0  0  0  0  0  0  0  0  0
    3.2789    2.0625    0.0000 O   0  0  0  0  0  0  0  0  0  0  0  0
    3.2789    1.2375    0.0000 C   0  0  0  0  0  0  0  0  0  0  0  0
    3.9934    0.8250    0.0000 N   0  0  0  0  0  0  0  0  0  0  0  0
    3.9934    0.0000    0.0000 C   0  0  0  0  0  0  0  0  0  0  0  0
    4.7079   -0.4125    0.0000 N   0  0  0  0  0  0  0  0  0  0  0  0
    3.2789   -0.4125    0.0000 N   0  0  0  0  0  0  0  0  0  0  0  0
    2.5645    0.0000    0.0000 C   0  0  0  0  0  0  0  0  0  0  0  0
    1.7798   -0.2549    0.0000 C   0  0  0  0  0  0  0  0  0  0  0  0
    1.2949    0.4125    0.0000 C   0  0  0  0  0  0  0  0  0  0  0  0
    1.7798    1.0799    0.0000 N   0  0  0  0  0  0  0  0  0  0  0  0
    1.5249    1.8646    0.0000 C   0  0  0  0  0  0  0  0  0  0  0  0
    2.0769    2.4777    0.0000 C   0  0  0  0  0  0  0  0  0  0  0  0
    1.8220    3.2623    0.0000 C   0  0  0  0  0  0  0  0  0  0  0  0
    2.3740    3.8754    0.0000 C   0  0  0  0  0  0  0  0  0  0  0  0
    3.1810    3.7038    0.0000 C   0  0  0  0  0  0  0  0  0  0  0  0
    3.4359    2.9192    0.0000 C   0  0  0  0  0  0  0  0  0  0  0  0
    2.8839    2.3061    0.0000 N   0  0  0  0  0  0  0  0  0  0  0  0
    2.5645    0.8250    0.0000 C   0  0  0  0  0  0  0  0  0  0  0  0
    4.7941    1.2420    0.0000 N   0  0  0  0  0  0  0  0  0  0  0  0
    5.6011    1.0705    0.0000 O   0  0  0  0  0  0  0  0  0  0  0  0
  1  2  1  0  0  0  0
  2  3  4  0  0  0  0
  3  4  4  0  0  0  0
  4  5  1  0  0  0  0
  5  6  1  0  0  0  0
  6  7  1  0  0  0  0
  7  8  4  0  0  0  0
  8  9  4  0  0  0  0
  9 10  1  0  0  0  0
  9 11  4  0  0  0  0
 11 12  4  0  0  0  0
 12 13  4  0  0  0  0
 13 14  4  0  0  0  0
 14 15  4  0  0  0  0
 15 16  1  0  0  0  0
 16 17  1  0  0  0  0
 17 18  4  0  0  0  0
 18 19  4  0  0  0  0
 19 20  4  0  0  0  0
 20 21  4  0  0  0  0
 21 22  4  0  0  0  0
 17 22  4  0  0  0  0
 15 23  4  0  0  0  0
  7 23  4  0  0  0  0
 12 23  4  0  0  0  0
  4 24  4  0  0  0  0
 24 25  4  0  0  0  0
  2 25  4  0  0  0  0
M  END
>  <CdId>
236

>  <Mol Weight>
336.355

>  <Formula>
C17H16N6O2

>  <Molecule ChEMBL ID>
CHEMBL4103847

>  <Molecule Max Phase>
None

>  <Molecular Weight>
336.36

>  <#RO5 Violations>
0

>  <AlogP>
2.33

>  <Compound Key>
54

>  <Standard Type>
IC50

>  <Standard Relation>
'>'

>  <Standard Value>
10000.0

>  <Standard Units>
nM

$$$$

  Mrv2114 03112311372D          

 42 47  0  0  1  0            999 V2000
   -0.7145    1.2375    0.0000 C   0  0  0  0  0  0  0  0  0  0  0  0
   -0.7145    2.0625    0.0000 C   0  0  0  0  0  0  0  0  0  0  0  0
   -1.4289    2.4750    0.0000 N   0  0  0  0  0  0  0  0  0  0  0  0
   -1.4289    3.3000    0.0000 C   0  0  0  0  0  0  0  0  0  0  0  0
   -2.1434    3.7125    0.0000 O   0  0  0  0  0  0  0  0  0  0  0  0
   -2.1434    4.5375    0.0000 C   0  0  0  0  0  0  0  0  0  0  0  0
   -2.8579    4.9500    0.0000 C   0  0  0  0  0  0  0  0  0  0  0  0
   -2.8579    5.7750    0.0000 C   0  0  0  0  0  0  0  0  0  0  0  0
   -2.1434    6.1875    0.0000 C   0  0  0  0  0  0  0  0  0  0  0  0
   -2.1434    7.0125    0.0000 C   0  0  0  0  0  0  0  0  0  0  0  0
   -1.4289    7.4250    0.0000 N   0  0  0  0  0  0  0  0  0  0  0  0
   -2.8579    7.4250    0.0000 O   0  0  0  0  0  0  0  0  0  0  0  0
   -1.4289    5.7750    0.0000 C   0  0  0  0  0  0  0  0  0  0  0  0
   -1.4289    4.9500    0.0000 C   0  0  0  0  0  0  0  0  0  0  0  0
   -0.7145    3.7125    0.0000 C   0  0  0  0  0  0  0  0  0  0  0  0
   -0.0000    3.3000    0.0000 C   0  0  0  0  0  0  0  0  0  0  0  0
    0.0000    2.4750    0.0000 C   0  0  0  0  0  0  0  0  0  0  0  0
    0.7145    2.0625    0.0000 C   0  0  0  0  0  0  0  0  0  0  0  0
    0.7145    1.2375    0.0000 N   0  0  0  0  0  0  0  0  0  0  0  0
    1.4289    0.8250    0.0000 C   0  0  0  0  0  0  0  0  0  0  0  0
    1.4289   -0.0000    0.0000 C   0  0  0  0  0  0  0  0  0  0  0  0
    0.7145   -0.4125    0.0000 C   0  0  0  0  0  0  0  0  0  0  0  0
    0.7145   -1.2375    0.0000 N   0  0  0  0  0  0  0  0  0  0  0  0
    1.3819   -1.7224    0.0000 C   0  0  0  0  0  0  0  0  0  0  0  0
    2.1665   -1.4675    0.0000 O   0  0  0  0  0  0  0  0  0  0  0  0
    1.1270   -2.5070    0.0000 N   0  0  0  0  0  0  0  0  0  0  0  0
    1.6119   -3.1745    0.0000 C   0  0  0  0  0  0  0  0  0  0  0  0
    2.4324   -3.0882    0.0000 C   0  0  0  0  0  0  0  0  0  0  0  0
    2.9173   -3.7557    0.0000 C   0  0  0  0  0  0  0  0  0  0  0  0
    2.5817   -4.5094    0.0000 O   0  0  0  0  0  0  0  0  0  0  0  0
    1.7613   -4.5956    0.0000 C   0  0  0  0  0  0  0  0  0  0  0  0
    1.2763   -3.9282    0.0000 C   0  0  0  0  0  0  0  0  0  0  0  0
    0.3020   -2.5070    0.0000 C   0  0  0  0  0  0  0  0  0  0  0  0
    0.0470   -1.7224    0.0000 C   0  0  1  0  0  0  0  0  0  0  0  0
   -0.7376   -1.4675    0.0000 C   0  0  0  0  0  0  0  0  0  0  0  0
   -1.3507   -2.0195    0.0000 C   0  0  0  0  0  0  0  0  0  0  0  0
   -2.1353   -1.7646    0.0000 C   0  0  0  0  0  0  0  0  0  0  0  0
   -2.3068   -0.9576    0.0000 C   0  0  0  0  0  0  0  0  0  0  0  0
   -1.6937   -0.4056    0.0000 C   0  0  0  0  0  0  0  0  0  0  0  0
   -0.9091   -0.6605    0.0000 C   0  0  0  0  0  0  0  0  0  0  0  0
    0.0000   -0.0000    0.0000 C   0  0  0  0  0  0  0  0  0  0  0  0
    0.0000    0.8250    0.0000 C   0  0  0  0  0  0  0  0  0  0  0  0
  1  2  1  0  0  0  0
  2  3  4  0  0  0  0
  3  4  4  0  0  0  0
  4  5  1  0  0  0  0
  5  6  1  0  0  0  0
  6  7  4  0  0  0  0
  7  8  4  0  0  0  0
  8  9  4  0  0  0  0
  9 10  1  0  0  0  0
 10 11  1  0  0  0  0
 10 12  2  0  0  0  0
  9 13  4  0  0  0  0
 13 14  4  0  0  0  0
  6 14  4  0  0  0  0
  4 15  4  0  0  0  0
 15 16  4  0  0  0  0
 16 17  4  0  0  0  0
  2 17  4  0  0  0  0
 17 18  1  0  0  0  0
 18 19  1  0  0  0  0
 19 20  1  0  0  0  0
 20 21  1  0  0  0  0
 21 22  1  0  0  0  0
 22 23  1  0  0  0  0
 23 24  1  0  0  0  0
 24 25  2  0  0  0  0
 24 26  1  0  0  0  0
 26 27  1  0  0  0  0
 27 28  1  0  0  0  0
 28 29  1  0  0  0  0
 29 30  1  0  0  0  0
 30 31  1  0  0  0  0
 31 32  1  0  0  0  0
 27 32  1  0  0  0  0
 26 33  1  0  0  0  0
 34 33  1  0  0  0  0
 34 23  1  0  0  0  0
 34 35  1  1  0  0  0
 35 36  4  0  0  0  0
 36 37  4  0  0  0  0
 37 38  4  0  0  0  0
 38 39  4  0  0  0  0
 39 40  4  0  0  0  0
 35 40  4  0  0  0  0
 22 41  1  0  0  0  0
 41 42  1  0  0  0  0
 19 42  1  0  0  0  0
M  END
>  <CdId>
237

>  <Mol Weight>
569.706

>  <Formula>
C33H39N5O4

>  <Molecule ChEMBL ID>
CHEMBL2435858

>  <Molecule Max Phase>
None

>  <Molecular Weight>
569.71

>  <#RO5 Violations>
1

>  <AlogP>
4.9

>  <Compound Key>
6k

>  <Standard Type>
IC50

>  <Standard Relation>
'>'

>  <Standard Value>
26000.0

>  <Standard Units>
nM

$$$$

  Mrv2114 03112311372D          

 41 43  0  0  1  0            999 V2000
    0.8212    2.8259    0.0000 C   0  0  0  0  0  0  0  0  0  0  0  0
    0.1067    3.2384    0.0000 C   0  0  2  0  0  0  0  0  0  0  0  0
   -0.6078    2.8259    0.0000 N   0  0  0  0  0  0  0  0  0  0  0  0
   -0.6078    2.0009    0.0000 S   0  0  0  0  0  0  0  0  0  0  0  0
    0.2172    2.0009    0.0000 O   0  0  0  0  0  0  0  0  0  0  0  0
   -1.4328    2.0009    0.0000 O   0  0  0  0  0  0  0  0  0  0  0  0
   -0.6078    1.1759    0.0000 C   0  0  0  0  0  0  0  0  0  0  0  0
   -1.3222    0.7634    0.0000 C   0  0  0  0  0  0  0  0  0  0  0  0
   -1.3222   -0.0616    0.0000 C   0  0  0  0  0  0  0  0  0  0  0  0
   -0.6078   -0.4741    0.0000 C   0  0  0  0  0  0  0  0  0  0  0  0
   -0.6078   -1.2991    0.0000 C   0  0  0  0  0  0  0  0  0  0  0  0
    0.0597   -1.7840    0.0000 S   0  0  0  0  0  0  0  0  0  0  0  0
   -0.1953   -2.5687    0.0000 C   0  0  0  0  0  0  0  0  0  0  0  0
    0.2897   -3.2361    0.0000 C   0  0  0  0  0  0  0  0  0  0  0  0
    1.1101   -3.1499    0.0000 O   0  0  0  0  0  0  0  0  0  0  0  0
   -0.0459   -3.9898    0.0000 N   0  0  0  0  0  0  0  0  0  0  0  0
    0.4390   -4.6572    0.0000 C   0  0  0  0  0  0  0  0  0  0  0  0
    0.1035   -5.4109    0.0000 C   0  0  0  0  0  0  0  0  0  0  0  0
   -0.2321   -6.1646    0.0000 C   0  0  0  0  0  0  0  0  0  0  0  0
    0.8571   -5.7464    0.0000 C   0  0  0  0  0  0  0  0  0  0  0  0
   -0.6502   -5.0753    0.0000 O   0  0  0  0  0  0  0  0  0  0  0  0
   -1.0203   -2.5687    0.0000 N   0  0  0  0  0  0  0  0  0  0  0  0
   -1.2752   -1.7840    0.0000 C   0  0  0  0  0  0  0  0  0  0  0  0
   -2.0598   -1.5291    0.0000 C   0  0  0  0  0  0  0  0  0  0  0  0
   -2.2314   -0.7221    0.0000 O   0  0  0  0  0  0  0  0  0  0  0  0
   -2.6729   -2.0811    0.0000 N   0  0  0  0  0  0  0  0  0  0  0  0
   -2.5014   -2.8881    0.0000 C   0  0  0  0  0  0  0  0  0  0  0  0
   -3.1145   -3.4401    0.0000 C   0  0  0  0  0  0  0  0  0  0  0  0
   -3.8991   -3.1852    0.0000 C   0  0  0  0  0  0  0  0  0  0  0  0
   -4.0139   -4.0022    0.0000 F   0  0  0  0  0  0  0  0  0  0  0  0
   -4.7236   -3.2140    0.0000 F   0  0  0  0  0  0  0  0  0  0  0  0
   -4.0706   -2.3782    0.0000 C   0  0  0  0  0  0  0  0  0  0  0  0
   -3.4575   -1.8262    0.0000 C   0  0  0  0  0  0  0  0  0  0  0  0
    0.1067   -0.0616    0.0000 C   0  0  0  0  0  0  0  0  0  0  0  0
    0.8212   -0.4741    0.0000 Cl  0  0  0  0  0  0  0  0  0  0  0  0
    0.1067    0.7634    0.0000 C   0  0  0  0  0  0  0  0  0  0  0  0
    0.8212    1.1759    0.0000 Cl  0  0  0  0  0  0  0  0  0  0  0  0
    0.1067    4.0634    0.0000 C   0  0  0  0  0  0  0  0  0  0  0  0
    0.1067    4.8884    0.0000 F   0  0  0  0  0  0  0  0  0  0  0  0
    0.9317    4.0634    0.0000 F   0  0  0  0  0  0  0  0  0  0  0  0
   -0.7183    4.0634    0.0000 F   0  0  0  0  0  0  0  0  0  0  0  0
  2  1  1  6  0  0  0
  2  3  1  0  0  0  0
  3  4  1  0  0  0  0
  4  5  2  0  0  0  0
  4  6  2  0  0  0  0
  4  7  1  0  0  0  0
  7  8  4  0  0  0  0
  8  9  4  0  0  0  0
  9 10  4  0  0  0  0
 10 11  1  0  0  0  0
 11 12  4  0  0  0  0
 12 13  4  0  0  0  0
 13 14  1  0  0  0  0
 14 15  2  0  0  0  0
 14 16  1  0  0  0  0
 16 17  1  0  0  0  0
 17 18  1  0  0  0  0
 18 19  1  0  0  0  0
 18 20  1  0  0  0  0
 18 21  1  0  0  0  0
 13 22  4  0  0  0  0
 22 23  4  0  0  0  0
 11 23  4  0  0  0  0
 23 24  1  0  0  0  0
 24 25  2  0  0  0  0
 24 26  1  0  0  0  0
 26 27  1  0  0  0  0
 27 28  1  0  0  0  0
 28 29  1  0  0  0  0
 29 30  1  0  0  0  0
 29 31  1  0  0  0  0
 29 32  1  0  0  0  0
 32 33  1  0  0  0  0
 26 33  1  0  0  0  0
 10 34  4  0  0  0  0
 34 35  1  0  0  0  0
 34 36  4  0  0  0  0
  7 36  4  0  0  0  0
 36 37  1  0  0  0  0
  2 38  1  0  0  0  0
 38 39  1  0  0  0  0
 38 40  1  0  0  0  0
 38 41  1  0  0  0  0
M  END
>  <CdId>
238

>  <Mol Weight>
667.49

>  <Formula>
C23H25Cl2F5N4O5S2

>  <Molecule ChEMBL ID>
CHEMBL4646118

>  <Molecule Max Phase>
None

>  <Molecular Weight>
667.51

>  <#RO5 Violations>
1

>  <AlogP>
4.72

>  <Compound Key>
1f

>  <Standard Type>
IC50

>  <Standard Relation>
'>'

>  <Standard Value>
10000.0

>  <Standard Units>
nM

$$$$

  Mrv2114 03112311372D          

 48 53  0  0  0  0            999 V2000
  -10.7171   -3.7125    0.0000 C   0  0  0  0  0  0  0  0  0  0  0  0
  -10.0026   -4.1250    0.0000 O   0  0  0  0  0  0  0  0  0  0  0  0
   -9.2881   -3.7125    0.0000 C   0  0  0  0  0  0  0  0  0  0  0  0
   -8.5737   -4.1250    0.0000 C   0  0  0  0  0  0  0  0  0  0  0  0
   -7.8592   -3.7125    0.0000 C   0  0  0  0  0  0  0  0  0  0  0  0
   -7.8592   -2.8875    0.0000 C   0  0  0  0  0  0  0  0  0  0  0  0
   -8.5737   -2.4750    0.0000 C   0  0  0  0  0  0  0  0  0  0  0  0
   -9.2881   -2.8875    0.0000 C   0  0  0  0  0  0  0  0  0  0  0  0
  -10.0026   -2.4750    0.0000 O   0  0  0  0  0  0  0  0  0  0  0  0
  -10.7171   -2.8875    0.0000 C   0  0  0  0  0  0  0  0  0  0  0  0
   -7.1447   -2.4750    0.0000 C   0  0  0  0  0  0  0  0  0  0  0  0
   -6.4302   -2.8875    0.0000 N   0  0  0  0  0  0  0  0  0  0  0  0
   -5.7158   -2.4750    0.0000 C   0  0  0  0  0  0  0  0  0  0  0  0
   -5.7158   -1.6500    0.0000 C   0  0  0  0  0  0  0  0  0  0  0  0
   -5.0013   -1.2375    0.0000 C   0  0  0  0  0  0  0  0  0  0  0  0
   -5.0013   -0.4125    0.0000 C   0  0  0  0  0  0  0  0  0  0  0  0
   -4.2868   -0.0000    0.0000 C   0  0  0  0  0  0  0  0  0  0  0  0
   -3.5724   -0.4125    0.0000 C   0  0  0  0  0  0  0  0  0  0  0  0
   -2.8579   -0.0000    0.0000 N   0  0  0  0  0  0  0  0  0  0  0  0
   -2.1434   -0.4125    0.0000 C   0  0  0  0  0  0  0  0  0  0  0  0
   -2.1434   -1.2375    0.0000 O   0  0  0  0  0  0  0  0  0  0  0  0
   -1.4289   -0.0000    0.0000 C   0  0  0  0  0  0  0  0  0  0  0  0
   -1.4289    0.8250    0.0000 C   0  0  0  0  0  0  0  0  0  0  0  0
   -0.7145    1.2375    0.0000 C   0  0  0  0  0  0  0  0  0  0  0  0
   -0.7145    2.0625    0.0000 O   0  0  0  0  0  0  0  0  0  0  0  0
    0.0000    2.4750    0.0000 C   0  0  0  0  0  0  0  0  0  0  0  0
    0.0000    0.8250    0.0000 C   0  0  0  0  0  0  0  0  0  0  0  0
    0.7145    1.2375    0.0000 O   0  0  0  0  0  0  0  0  0  0  0  0
    1.4289    0.8250    0.0000 C   0  0  0  0  0  0  0  0  0  0  0  0
    0.0000   -0.0000    0.0000 C   0  0  0  0  0  0  0  0  0  0  0  0
   -0.7145   -0.4125    0.0000 C   0  0  0  0  0  0  0  0  0  0  0  0
   -0.7145   -1.2375    0.0000 N   0  0  0  0  0  0  0  0  0  0  0  0
    0.0000   -1.6500    0.0000 C   0  0  0  0  0  0  0  0  0  0  0  0
    0.0000   -2.4750    0.0000 O   0  0  0  0  0  0  0  0  0  0  0  0
    0.7145   -1.2375    0.0000 C   0  0  0  0  0  0  0  0  0  0  0  0
    0.7145   -0.4125    0.0000 C   0  0  0  0  0  0  0  0  0  0  0  0
    1.4289    0.0000    0.0000 N   0  0  0  0  0  0  0  0  0  0  0  0
    2.1434   -0.4125    0.0000 C   0  0  0  0  0  0  0  0  0  0  0  0
    2.8579    0.0000    0.0000 C   0  0  0  0  0  0  0  0  0  0  0  0
    3.5724   -0.4125    0.0000 C   0  0  0  0  0  0  0  0  0  0  0  0
    3.5724   -1.2375    0.0000 C   0  0  0  0  0  0  0  0  0  0  0  0
    2.8579   -1.6500    0.0000 C   0  0  0  0  0  0  0  0  0  0  0  0
    2.1434   -1.2375    0.0000 C   0  0  0  0  0  0  0  0  0  0  0  0
    1.4289   -1.6500    0.0000 C   0  0  0  0  0  0  0  0  0  0  0  0
   -3.5724   -1.2375    0.0000 C   0  0  0  0  0  0  0  0  0  0  0  0
   -4.2868   -1.6500    0.0000 C   0  0  0  0  0  0  0  0  0  0  0  0
   -6.4302   -3.7125    0.0000 C   0  0  0  0  0  0  0  0  0  0  0  0
   -7.1447   -4.1250    0.0000 C   0  0  0  0  0  0  0  0  0  0  0  0
  1  2  1  0  0  0  0
  2  3  1  0  0  0  0
  3  4  4  0  0  0  0
  4  5  4  0  0  0  0
  5  6  4  0  0  0  0
  6  7  4  0  0  0  0
  7  8  4  0  0  0  0
  3  8  4  0  0  0  0
  8  9  1  0  0  0  0
  9 10  1  0  0  0  0
  6 11  1  0  0  0  0
 11 12  1  0  0  0  0
 12 13  1  0  0  0  0
 13 14  1  0  0  0  0
 14 15  1  0  0  0  0
 15 16  4  0  0  0  0
 16 17  4  0  0  0  0
 17 18  4  0  0  0  0
 18 19  1  0  0  0  0
 19 20  1  0  0  0  0
 20 21  2  0  0  0  0
 20 22  1  0  0  0  0
 22 23  4  0  0  0  0
 23 24  4  0  0  0  0
 24 25  1  0  0  0  0
 25 26  1  0  0  0  0
 24 27  4  0  0  0  0
 27 28  1  0  0  0  0
 28 29  1  0  0  0  0
 27 30  4  0  0  0  0
 30 31  4  0  0  0  0
 22 31  4  0  0  0  0
 31 32  1  0  0  0  0
 32 33  1  0  0  0  0
 33 34  2  0  0  0  0
 33 35  1  0  0  0  0
 35 36  4  0  0  0  0
 36 37  4  0  0  0  0
 37 38  4  0  0  0  0
 38 39  4  0  0  0  0
 39 40  4  0  0  0  0
 40 41  4  0  0  0  0
 41 42  4  0  0  0  0
 42 43  4  0  0  0  0
 38 43  4  0  0  0  0
 43 44  4  0  0  0  0
 35 44  4  0  0  0  0
 18 45  4  0  0  0  0
 45 46  4  0  0  0  0
 15 46  4  0  0  0  0
 12 47  1  0  0  0  0
 47 48  1  0  0  0  0
  5 48  1  0  0  0  0
M  END
>  <CdId>
239

>  <Mol Weight>
646.744

>  <Formula>
C38H38N4O6

>  <Molecule ChEMBL ID>
CHEMBL348475

>  <Molecule Name>
TARIQUIDAR

>  <Molecule Max Phase>
3

>  <Molecular Weight>
646.74

>  <#RO5 Violations>
2

>  <AlogP>
6.37

>  <Compound Key>
XR-9576

>  <Standard Type>
IC50

>  <Standard Relation>
'='

>  <Standard Value>
45300.0

>  <Standard Units>
nM

$$$$

  Mrv2114 03112311372D          

 95 96  0  0  1  0            999 V2000
  -13.9961    6.7072    0.0000 C   0  0  0  0  0  0  0  0  0  0  0  0
  -13.6895    5.9413    0.0000 C   0  0  0  0  0  0  0  0  0  0  0  0
  -12.8729    5.8239    0.0000 C   0  0  0  0  0  0  0  0  0  0  0  0
  -12.5663    5.0579    0.0000 C   0  0  0  0  0  0  0  0  0  0  0  0
  -11.7497    4.9405    0.0000 C   0  0  1  0  0  0  0  0  0  0  0  0
  -11.4430    4.1746    0.0000 C   0  0  0  0  0  0  0  0  0  0  0  0
  -11.2397    5.5890    0.0000 C   0  0  1  0  0  0  0  0  0  0  0  0
  -11.5463    6.3549    0.0000 O   0  0  0  0  0  0  0  0  0  0  0  0
  -10.4231    5.4716    0.0000 C   0  0  1  0  0  0  0  0  0  0  0  0
  -10.1165    4.7057    0.0000 C   0  0  0  0  0  0  0  0  0  0  0  0
  -10.6264    4.0572    0.0000 O   0  0  0  0  0  0  0  0  0  0  0  0
   -9.2999    4.5883    0.0000 N   0  0  0  0  0  0  0  0  0  0  0  0
   -9.3783    3.7670    0.0000 C   0  0  1  0  0  0  0  0  0  0  0  0
  -10.1287    3.4243    0.0000 C   0  0  0  0  0  0  0  0  0  0  0  0
  -10.2072    2.6031    0.0000 C   0  0  0  0  0  0  0  0  0  0  0  0
   -8.7063    3.2885    0.0000 C   0  0  0  0  0  0  0  0  0  0  0  0
   -8.7847    2.4672    0.0000 O   0  0  0  0  0  0  0  0  0  0  0  0
   -7.9558    3.6312    0.0000 N   0  0  0  0  0  0  0  0  0  0  0  0
   -7.6860    4.4108    0.0000 C   0  0  0  0  0  0  0  0  0  0  0  0
   -7.5778    2.8979    0.0000 C   0  0  2  0  0  0  0  0  0  0  0  0
   -8.0238    2.2039    0.0000 C   0  0  0  0  0  0  0  0  0  0  0  0
   -6.7537    2.8587    0.0000 C   0  0  0  0  0  0  0  0  0  0  0  0
   -6.3757    2.1254    0.0000 O   0  0  0  0  0  0  0  0  0  0  0  0
   -6.3077    3.5527    0.0000 N   0  0  0  0  0  0  0  0  0  0  0  0
   -6.5022    4.3544    0.0000 C   0  0  0  0  0  0  0  0  0  0  0  0
   -5.5932    3.1402    0.0000 C   0  0  1  0  0  0  0  0  0  0  0  0
   -5.5932    2.3152    0.0000 C   0  0  1  0  0  0  0  0  0  0  0  0
   -6.1452    1.7021    0.0000 C   0  0  0  0  0  0  0  0  0  0  0  0
   -4.8787    1.9027    0.0000 C   0  0  0  0  0  0  0  0  0  0  0  0
   -4.8787    1.0777    0.0000 N   0  0  0  0  0  0  0  0  0  0  0  0
   -4.1643    0.6652    0.0000 C   0  0  0  0  0  0  0  0  0  0  0  0
   -4.1643   -0.1598    0.0000 C   0  0  0  0  0  0  0  0  0  0  0  0
   -4.8787   -0.5723    0.0000 N   0  0  0  0  0  0  0  0  0  0  0  0
   -4.8787   -1.3973    0.0000 C   0  0  0  0  0  0  0  0  0  0  0  0
   -5.5932   -1.8098    0.0000 C   0  0  0  0  0  0  0  0  0  0  0  0
   -5.5932   -2.6348    0.0000 O   0  0  0  0  0  0  0  0  0  0  0  0
   -6.3077   -3.0473    0.0000 C   0  0  0  0  0  0  0  0  0  0  0  0
   -5.5932   -0.1598    0.0000 C   0  0  0  0  0  0  0  0  0  0  0  0
   -5.5932    0.6652    0.0000 C   0  0  0  0  0  0  0  0  0  0  0  0
   -4.8787    3.5527    0.0000 C   0  0  0  0  0  0  0  0  0  0  0  0
   -4.1643    3.1402    0.0000 O   0  0  0  0  0  0  0  0  0  0  0  0
   -4.8787    4.3777    0.0000 N   0  0  0  0  0  0  0  0  0  0  0  0
   -4.0547    4.4170    0.0000 C   0  0  1  0  0  0  0  0  0  0  0  0
   -3.6086    3.7229    0.0000 C   0  0  0  0  0  0  0  0  0  0  0  0
   -2.7846    3.7622    0.0000 C   0  0  0  0  0  0  0  0  0  0  0  0
   -3.7416    2.9087    0.0000 C   0  0  0  0  0  0  0  0  0  0  0  0
   -3.6766    5.1502    0.0000 C   0  0  0  0  0  0  0  0  0  0  0  0
   -2.8526    5.1895    0.0000 O   0  0  0  0  0  0  0  0  0  0  0  0
   -4.1227    5.8443    0.0000 N   0  0  0  0  0  0  0  0  0  0  0  0
   -4.9328    6.0004    0.0000 C   0  0  0  0  0  0  0  0  0  0  0  0
   -3.4506    6.3228    0.0000 C   0  0  1  0  0  0  0  0  0  0  0  0
   -2.7002    5.9801    0.0000 C   0  0  0  0  0  0  0  0  0  0  0  0
   -2.0282    6.4587    0.0000 C   0  0  0  0  0  0  0  0  0  0  0  0
   -2.1066    7.2799    0.0000 C   0  0  0  0  0  0  0  0  0  0  0  0
   -1.2777    6.1159    0.0000 C   0  0  0  0  0  0  0  0  0  0  0  0
   -3.5291    7.1441    0.0000 C   0  0  0  0  0  0  0  0  0  0  0  0
   -2.8570    7.6226    0.0000 O   0  0  0  0  0  0  0  0  0  0  0  0
   -4.2795    7.4868    0.0000 N   0  0  0  0  0  0  0  0  0  0  0  0
   -3.9729    8.2527    0.0000 C   0  0  1  0  0  0  0  0  0  0  0  0
   -3.1563    8.3701    0.0000 C   0  0  0  0  0  0  0  0  0  0  0  0
   -4.4829    8.9012    0.0000 C   0  0  0  0  0  0  0  0  0  0  0  0
   -4.1762    9.6671    0.0000 O   0  0  0  0  0  0  0  0  0  0  0  0
   -5.2995    8.7838    0.0000 N   0  0  0  0  0  0  0  0  0  0  0  0
   -5.4556    9.5939    0.0000 C   0  0  2  0  0  0  0  0  0  0  0  0
   -4.8321   10.1342    0.0000 C   0  0  0  0  0  0  0  0  0  0  0  0
   -6.2352    9.8637    0.0000 C   0  0  0  0  0  0  0  0  0  0  0  0
   -6.3914   10.6738    0.0000 O   0  0  0  0  0  0  0  0  0  0  0  0
   -6.8587    9.3235    0.0000 N   0  0  0  0  0  0  0  0  0  0  0  0
   -6.8980    8.4994    0.0000 C   0  0  0  0  0  0  0  0  0  0  0  0
   -7.4280    9.9205    0.0000 C   0  0  1  0  0  0  0  0  0  0  0  0
   -7.1956   10.7121    0.0000 C   0  0  0  0  0  0  0  0  0  0  0  0
   -7.7649   11.3092    0.0000 C   0  0  0  0  0  0  0  0  0  0  0  0
   -8.5667   11.1147    0.0000 C   0  0  0  0  0  0  0  0  0  0  0  0
   -7.5325   12.1008    0.0000 C   0  0  0  0  0  0  0  0  0  0  0  0
   -8.2298    9.7260    0.0000 C   0  0  0  0  0  0  0  0  0  0  0  0
   -8.7991   10.3231    0.0000 O   0  0  0  0  0  0  0  0  0  0  0  0
   -8.4622    8.9345    0.0000 N   0  0  0  0  0  0  0  0  0  0  0  0
   -8.0497    8.2200    0.0000 C   0  0  0  0  0  0  0  0  0  0  0  0
   -9.2640    9.1290    0.0000 C   0  0  1  0  0  0  0  0  0  0  0  0
   -9.4964    9.9205    0.0000 C   0  0  0  0  0  0  0  0  0  0  0  0
  -10.2981   10.1150    0.0000 C   0  0  0  0  0  0  0  0  0  0  0  0
  -10.8674    9.5180    0.0000 C   0  0  0  0  0  0  0  0  0  0  0  0
  -10.5306   10.9066    0.0000 C   0  0  0  0  0  0  0  0  0  0  0  0
   -9.8333    8.5319    0.0000 C   0  0  0  0  0  0  0  0  0  0  0  0
  -10.6350    8.7264    0.0000 O   0  0  0  0  0  0  0  0  0  0  0  0
   -9.6008    7.7403    0.0000 N   0  0  0  0  0  0  0  0  0  0  0  0
   -8.8676    7.3623    0.0000 C   0  0  0  0  0  0  0  0  0  0  0  0
  -10.3805    7.4705    0.0000 C   0  0  1  0  0  0  0  0  0  0  0  0
  -11.0040    8.0107    0.0000 C   0  0  0  0  0  0  0  0  0  0  0  0
  -11.7836    7.7409    0.0000 C   0  0  0  0  0  0  0  0  0  0  0  0
  -11.1058    8.8294    0.0000 C   0  0  0  0  0  0  0  0  0  0  0  0
  -10.5366    6.6604    0.0000 C   0  0  0  0  0  0  0  0  0  0  0  0
  -11.3614    6.6447    0.0000 O   0  0  0  0  0  0  0  0  0  0  0  0
   -9.9131    6.1201    0.0000 N   0  0  0  0  0  0  0  0  0  0  0  0
   -9.0918    6.1985    0.0000 C   0  0  0  0  0  0  0  0  0  0  0  0
  1  2  1  0  0  0  0
  2  3  2  0  0  0  0
  3  4  1  0  0  0  0
  5  4  1  0  0  0  0
  5  6  1  6  0  0  0
  7  5  1  0  0  0  0
  7  8  1  1  0  0  0
  7  9  1  0  0  0  0
  9 10  1  0  0  0  0
 10 11  2  0  0  0  0
 10 12  1  0  0  0  0
 13 12  1  0  0  0  0
 13 14  1  6  0  0  0
 14 15  1  0  0  0  0
 13 16  1  0  0  0  0
 16 17  2  0  0  0  0
 16 18  1  0  0  0  0
 18 19  1  0  0  0  0
 20 18  1  0  0  0  0
 20 21  1  1  0  0  0
 20 22  1  0  0  0  0
 22 23  2  0  0  0  0
 22 24  1  0  0  0  0
 24 25  1  0  0  0  0
 26 24  1  0  0  0  0
 26 27  1  6  0  0  0
 27 28  1  6  0  0  0
 27 29  1  0  0  0  0
 29 30  1  0  0  0  0
 30 31  1  0  0  0  0
 31 32  1  0  0  0  0
 32 33  1  0  0  0  0
 33 34  1  0  0  0  0
 34 35  1  0  0  0  0
 35 36  1  0  0  0  0
 36 37  1  0  0  0  0
 33 38  1  0  0  0  0
 38 39  1  0  0  0  0
 30 39  1  0  0  0  0
 26 40  1  0  0  0  0
 40 41  2  0  0  0  0
 40 42  1  0  0  0  0
 43 42  1  0  0  0  0
 43 44  1  6  0  0  0
 44 45  1  0  0  0  0
 44 46  1  0  0  0  0
 43 47  1  0  0  0  0
 47 48  2  0  0  0  0
 47 49  1  0  0  0  0
 49 50  1  0  0  0  0
 51 49  1  0  0  0  0
 51 52  1  6  0  0  0
 52 53  1  0  0  0  0
 53 54  1  0  0  0  0
 53 55  1  0  0  0  0
 51 56  1  0  0  0  0
 56 57  2  0  0  0  0
 56 58  1  0  0  0  0
 59 58  1  0  0  0  0
 59 60  1  6  0  0  0
 59 61  1  0  0  0  0
 61 62  2  0  0  0  0
 61 63  1  0  0  0  0
 64 63  1  0  0  0  0
 64 65  1  1  0  0  0
 64 66  1  0  0  0  0
 66 67  2  0  0  0  0
 66 68  1  0  0  0  0
 68 69  1  0  0  0  0
 70 68  1  0  0  0  0
 70 71  1  6  0  0  0
 71 72  1  0  0  0  0
 72 73  1  0  0  0  0
 72 74  1  0  0  0  0
 70 75  1  0  0  0  0
 75 76  2  0  0  0  0
 75 77  1  0  0  0  0
 77 78  1  0  0  0  0
 79 77  1  0  0  0  0
 79 80  1  6  0  0  0
 80 81  1  0  0  0  0
 81 82  1  0  0  0  0
 81 83  1  0  0  0  0
 79 84  1  0  0  0  0
 84 85  2  0  0  0  0
 84 86  1  0  0  0  0
 86 87  1  0  0  0  0
 88 86  1  0  0  0  0
 88 89  1  6  0  0  0
 89 90  1  0  0  0  0
 89 91  1  0  0  0  0
 88 92  1  0  0  0  0
 92 93  2  0  0  0  0
 92 94  1  0  0  0  0
  9 94  1  6  0  0  0
 94 95  1  0  0  0  0
M  END
>  <CdId>
240

>  <Mol Weight>
1344.837

>  <Formula>
C69H125N13O13

>  <Molecule ChEMBL ID>
CHEMBL3344501

>  <Molecule Max Phase>
None

>  <Molecular Weight>
1344.84

>  <#RO5 Violations>
None

>  <AlogP>
None

>  <Compound Key>
33

>  <Standard Type>
IC50

>  <Standard Relation>
'>'

>  <Standard Value>
40000.0

>  <Standard Units>
nM

$$$$

  Mrv2114 03112311372D          

 34 38  0  0  0  0            999 V2000
    6.1625   -2.2156    0.0000 O   0  0  0  0  0  0  0  0  0  0  0  0
    6.8769   -2.6281    0.0000 C   0  0  0  0  0  0  0  0  0  0  0  0
    7.5914   -2.2156    0.0000 O   0  0  0  0  0  0  0  0  0  0  0  0
    6.8769   -3.4531    0.0000 C   0  0  0  0  0  0  0  0  0  0  0  0
    7.4603   -4.0365    0.0000 C   0  0  0  0  0  0  0  0  0  0  0  0
    6.8769   -4.6198    0.0000 N   0  0  0  0  0  0  0  0  0  0  0  0
    6.8769   -5.4448    0.0000 C   0  0  0  0  0  0  0  0  0  0  0  0
    6.1625   -5.8573    0.0000 C   0  0  0  0  0  0  0  0  0  0  0  0
    6.1625   -6.6823    0.0000 C   0  0  0  0  0  0  0  0  0  0  0  0
    5.4480   -7.0948    0.0000 C   0  0  0  0  0  0  0  0  0  0  0  0
    4.7335   -6.6823    0.0000 C   0  0  0  0  0  0  0  0  0  0  0  0
    4.0191   -7.0948    0.0000 C   0  0  0  0  0  0  0  0  0  0  0  0
    3.9328   -7.9153    0.0000 N   0  0  0  0  0  0  0  0  0  0  0  0
    3.1258   -8.0869    0.0000 O   0  0  0  0  0  0  0  0  0  0  0  0
    2.7133   -7.3724    0.0000 C   0  0  0  0  0  0  0  0  0  0  0  0
    1.8929   -7.2861    0.0000 C   0  0  0  0  0  0  0  0  0  0  0  0
    1.3408   -7.8992    0.0000 O   0  0  0  0  0  0  0  0  0  0  0  0
    0.5872   -7.5637    0.0000 N   0  0  0  0  0  0  0  0  0  0  0  0
    0.6734   -6.7432    0.0000 C   0  0  0  0  0  0  0  0  0  0  0  0
    0.0603   -6.1912    0.0000 C   0  0  0  0  0  0  0  0  0  0  0  0
   -0.7243   -6.4461    0.0000 C   0  0  0  0  0  0  0  0  0  0  0  0
   -1.3374   -5.8941    0.0000 C   0  0  0  0  0  0  0  0  0  0  0  0
   -1.1659   -5.0871    0.0000 C   0  0  0  0  0  0  0  0  0  0  0  0
   -0.3813   -4.8322    0.0000 C   0  0  0  0  0  0  0  0  0  0  0  0
    0.2318   -5.3842    0.0000 C   0  0  0  0  0  0  0  0  0  0  0  0
    1.4804   -6.5717    0.0000 C   0  0  0  0  0  0  0  0  0  0  0  0
    1.8159   -5.8180    0.0000 C   0  0  0  0  0  0  0  0  0  0  0  0
    2.1515   -5.0643    0.0000 F   0  0  0  0  0  0  0  0  0  0  0  0
    2.5696   -6.1536    0.0000 F   0  0  0  0  0  0  0  0  0  0  0  0
    1.0622   -5.4824    0.0000 F   0  0  0  0  0  0  0  0  0  0  0  0
    3.2654   -6.7593    0.0000 N   0  0  0  0  0  0  0  0  0  0  0  0
    4.7335   -5.8573    0.0000 C   0  0  0  0  0  0  0  0  0  0  0  0
    5.4480   -5.4448    0.0000 C   0  0  0  0  0  0  0  0  0  0  0  0
    6.2936   -4.0365    0.0000 C   0  0  0  0  0  0  0  0  0  0  0  0
  1  2  2  0  0  0  0
  2  3  1  0  0  0  0
  2  4  1  0  0  0  0
  4  5  1  0  0  0  0
  5  6  1  0  0  0  0
  6  7  1  0  0  0  0
  7  8  1  0  0  0  0
  8  9  4  0  0  0  0
  9 10  4  0  0  0  0
 10 11  4  0  0  0  0
 11 12  1  0  0  0  0
 12 13  4  0  0  0  0
 13 14  4  0  0  0  0
 14 15  4  0  0  0  0
 15 16  1  0  0  0  0
 16 17  4  0  0  0  0
 17 18  4  0  0  0  0
 18 19  4  0  0  0  0
 19 20  1  0  0  0  0
 20 21  4  0  0  0  0
 21 22  4  0  0  0  0
 22 23  4  0  0  0  0
 23 24  4  0  0  0  0
 24 25  4  0  0  0  0
 20 25  4  0  0  0  0
 19 26  4  0  0  0  0
 16 26  4  0  0  0  0
 26 27  1  0  0  0  0
 27 28  1  0  0  0  0
 27 29  1  0  0  0  0
 27 30  1  0  0  0  0
 15 31  4  0  0  0  0
 12 31  4  0  0  0  0
 11 32  4  0  0  0  0
 32 33  4  0  0  0  0
  8 33  4  0  0  0  0
  6 34  1  0  0  0  0
  4 34  1  0  0  0  0
M  END
>  <CdId>
241

>  <Mol Weight>
470.408

>  <Formula>
C23H17F3N4O4

>  <Molecule ChEMBL ID>
CHEMBL3794064

>  <Molecule Max Phase>
None

>  <Molecular Weight>
470.41

>  <#RO5 Violations>
0

>  <AlogP>
4.59

>  <Compound Key>
6d; BMS-520

>  <Standard Type>
IC50

>  <Standard Relation>
'>'

>  <Standard Value>
40000.0

>  <Standard Units>
nM

$$$$

  Mrv2114 03112311372D          

 33 37  0  0  0  0            999 V2000
    2.8179   -2.4134    0.0000 C   0  0  0  0  0  0  0  0  0  0  0  0
    2.1034   -2.8259    0.0000 C   0  0  0  0  0  0  0  0  0  0  0  0
    1.3889   -2.4134    0.0000 C   0  0  0  0  0  0  0  0  0  0  0  0
    0.6745   -2.8259    0.0000 C   0  0  0  0  0  0  0  0  0  0  0  0
   -0.1102   -2.5710    0.0000 C   0  0  0  0  0  0  0  0  0  0  0  0
   -0.3651   -1.7863    0.0000 C   0  0  0  0  0  0  0  0  0  0  0  0
   -1.1721   -1.6148    0.0000 C   0  0  0  0  0  0  0  0  0  0  0  0
   -1.4270   -0.8302    0.0000 C   0  0  0  0  0  0  0  0  0  0  0  0
   -0.8750   -0.2171    0.0000 C   0  0  0  0  0  0  0  0  0  0  0  0
   -0.0680   -0.3886    0.0000 N   0  0  0  0  0  0  0  0  0  0  0  0
    0.1869   -1.1732    0.0000 C   0  0  0  0  0  0  0  0  0  0  0  0
    0.9939   -1.3448    0.0000 O   0  0  0  0  0  0  0  0  0  0  0  0
   -0.5951   -3.2384    0.0000 C   0  0  0  0  0  0  0  0  0  0  0  0
   -1.4201   -3.2384    0.0000 C   0  0  0  0  0  0  0  0  0  0  0  0
   -1.8326   -2.5239    0.0000 O   0  0  0  0  0  0  0  0  0  0  0  0
   -1.8326   -3.9529    0.0000 O   0  0  0  0  0  0  0  0  0  0  0  0
   -0.1102   -3.9058    0.0000 N   0  0  0  0  0  0  0  0  0  0  0  0
   -0.3651   -4.6905    0.0000 C   0  0  0  0  0  0  0  0  0  0  0  0
    0.1869   -5.3035    0.0000 C   0  0  0  0  0  0  0  0  0  0  0  0
    0.9939   -5.1320    0.0000 C   0  0  0  0  0  0  0  0  0  0  0  0
    1.5459   -5.7451    0.0000 C   0  0  0  0  0  0  0  0  0  0  0  0
    2.3529   -5.5736    0.0000 C   0  0  0  0  0  0  0  0  0  0  0  0
    2.9049   -6.1867    0.0000 C   0  0  0  0  0  0  0  0  0  0  0  0
    2.6500   -6.9713    0.0000 C   0  0  0  0  0  0  0  0  0  0  0  0
    1.8430   -7.1428    0.0000 C   0  0  0  0  0  0  0  0  0  0  0  0
    1.2910   -6.5297    0.0000 C   0  0  0  0  0  0  0  0  0  0  0  0
    0.4840   -6.7013    0.0000 N   0  0  0  0  0  0  0  0  0  0  0  0
   -0.0680   -6.0882    0.0000 C   0  0  0  0  0  0  0  0  0  0  0  0
   -0.8750   -6.2597    0.0000 Cl  0  0  0  0  0  0  0  0  0  0  0  0
    0.6745   -3.6509    0.0000 C   0  0  0  0  0  0  0  0  0  0  0  0
    1.3889   -4.0634    0.0000 C   0  0  0  0  0  0  0  0  0  0  0  0
    2.1034   -3.6509    0.0000 C   0  0  0  0  0  0  0  0  0  0  0  0
    2.8179   -4.0634    0.0000 F   0  0  0  0  0  0  0  0  0  0  0  0
  1  2  1  0  0  0  0
  2  3  4  0  0  0  0
  3  4  4  0  0  0  0
  4  5  4  0  0  0  0
  5  6  1  0  0  0  0
  6  7  4  0  0  0  0
  7  8  4  0  0  0  0
  8  9  4  0  0  0  0
  9 10  4  0  0  0  0
 10 11  4  0  0  0  0
  6 11  4  0  0  0  0
 11 12  2  0  0  0  0
  5 13  4  0  0  0  0
 13 14  1  0  0  0  0
 14 15  2  0  0  0  0
 14 16  1  0  0  0  0
 13 17  4  0  0  0  0
 17 18  1  0  0  0  0
 18 19  1  0  0  0  0
 19 20  4  0  0  0  0
 20 21  4  0  0  0  0
 21 22  4  0  0  0  0
 22 23  4  0  0  0  0
 23 24  4  0  0  0  0
 24 25  4  0  0  0  0
 25 26  4  0  0  0  0
 21 26  4  0  0  0  0
 26 27  4  0  0  0  0
 27 28  4  0  0  0  0
 19 28  4  0  0  0  0
 28 29  1  0  0  0  0
 17 30  4  0  0  0  0
  4 30  4  0  0  0  0
 30 31  4  0  0  0  0
 31 32  4  0  0  0  0
  2 32  4  0  0  0  0
 32 33  1  0  0  0  0
M  STY  1   1 DAT
M  SAL   1  1  10
M  SDT   1 MRV_IMPLICIT_H                                        
M  SDD   1     0.0000    0.0000    DR    ALL  0       0  
M  SED   1 IMPL_H1
M  END
>  <CdId>
242

>  <Mol Weight>
461.88

>  <Formula>
C25H17ClFN3O3

>  <Molecule ChEMBL ID>
CHEMBL3092124

>  <Molecule Max Phase>
None

>  <Molecular Weight>
461.88

>  <#RO5 Violations>
1

>  <AlogP>
5.39

>  <Compound Key>
2e

>  <Standard Type>
IC50

>  <Standard Relation>
'='

>  <Standard Value>
21000.0

>  <Standard Units>
nM

$$$$

  Mrv2114 03112311372D          

 33 37  0  0  0  0            999 V2000
    0.2427   -3.3913    0.0000 C   0  0  0  0  0  0  0  0  0  0  0  0
    0.4976   -2.6067    0.0000 N   0  0  0  0  0  0  0  0  0  0  0  0
    0.0127   -1.9393    0.0000 C   0  0  0  0  0  0  0  0  0  0  0  0
    0.4976   -1.2718    0.0000 C   0  0  0  0  0  0  0  0  0  0  0  0
    0.2427   -0.4872    0.0000 C   0  0  0  0  0  0  0  0  0  0  0  0
   -0.5643   -0.3157    0.0000 C   0  0  0  0  0  0  0  0  0  0  0  0
   -0.8192    0.4689    0.0000 C   0  0  0  0  0  0  0  0  0  0  0  0
   -0.2672    1.0820    0.0000 C   0  0  0  0  0  0  0  0  0  0  0  0
    0.5398    0.9105    0.0000 C   0  0  0  0  0  0  0  0  0  0  0  0
    0.7947    0.1259    0.0000 C   0  0  0  0  0  0  0  0  0  0  0  0
    0.9523    1.6250    0.0000 C   0  0  0  0  0  0  0  0  0  0  0  0
    0.4002    2.2381    0.0000 C   0  0  0  0  0  0  0  0  0  0  0  0
   -0.3534    1.9025    0.0000 N   0  0  0  0  0  0  0  0  0  0  0  0
   -1.0679    2.3150    0.0000 C   0  0  0  0  0  0  0  0  0  0  0  0
   -1.7824    1.9025    0.0000 O   0  0  0  0  0  0  0  0  0  0  0  0
   -1.0679    3.1400    0.0000 C   0  0  0  0  0  0  0  0  0  0  0  0
   -1.7824    3.5525    0.0000 C   0  0  0  0  0  0  0  0  0  0  0  0
   -2.4969    3.1400    0.0000 C   0  0  0  0  0  0  0  0  0  0  0  0
   -3.2113    3.5525    0.0000 C   0  0  0  0  0  0  0  0  0  0  0  0
   -3.2113    4.3775    0.0000 C   0  0  0  0  0  0  0  0  0  0  0  0
   -2.4969    4.7900    0.0000 C   0  0  0  0  0  0  0  0  0  0  0  0
   -2.4969    5.6150    0.0000 C   0  0  0  0  0  0  0  0  0  0  0  0
   -2.4969    6.4400    0.0000 F   0  0  0  0  0  0  0  0  0  0  0  0
   -3.3219    5.6150    0.0000 F   0  0  0  0  0  0  0  0  0  0  0  0
   -1.6719    5.6150    0.0000 F   0  0  0  0  0  0  0  0  0  0  0  0
   -1.7824    4.3775    0.0000 C   0  0  0  0  0  0  0  0  0  0  0  0
    1.2822   -1.5268    0.0000 C   0  0  0  0  0  0  0  0  0  0  0  0
    1.9967   -1.1143    0.0000 C   0  0  0  0  0  0  0  0  0  0  0  0
    1.9967   -0.2893    0.0000 N   0  0  0  0  0  0  0  0  0  0  0  0
    2.7112   -1.5268    0.0000 N   0  0  0  0  0  0  0  0  0  0  0  0
    2.7112   -2.3518    0.0000 C   0  0  0  0  0  0  0  0  0  0  0  0
    1.9967   -2.7643    0.0000 N   0  0  0  0  0  0  0  0  0  0  0  0
    1.2822   -2.3518    0.0000 C   0  0  0  0  0  0  0  0  0  0  0  0
  1  2  1  0  0  0  0
  2  3  4  0  0  0  0
  3  4  4  0  0  0  0
  4  5  1  0  0  0  0
  5  6  4  0  0  0  0
  6  7  4  0  0  0  0
  7  8  4  0  0  0  0
  8  9  4  0  0  0  0
  9 10  4  0  0  0  0
  5 10  4  0  0  0  0
  9 11  1  0  0  0  0
 11 12  1  0  0  0  0
 12 13  1  0  0  0  0
  8 13  1  0  0  0  0
 13 14  1  0  0  0  0
 14 15  2  0  0  0  0
 14 16  1  0  0  0  0
 16 17  1  0  0  0  0
 17 18  4  0  0  0  0
 18 19  4  0  0  0  0
 19 20  4  0  0  0  0
 20 21  4  0  0  0  0
 21 22  1  0  0  0  0
 22 23  1  0  0  0  0
 22 24  1  0  0  0  0
 22 25  1  0  0  0  0
 21 26  4  0  0  0  0
 17 26  4  0  0  0  0
  4 27  4  0  0  0  0
 27 28  4  0  0  0  0
 28 29  1  0  0  0  0
 28 30  4  0  0  0  0
 30 31  4  0  0  0  0
 31 32  4  0  0  0  0
 32 33  4  0  0  0  0
 27 33  4  0  0  0  0
  2 33  4  0  0  0  0
M  END
>  <CdId>
243

>  <Mol Weight>
451.453

>  <Formula>
C24H20F3N5O

>  <Molecule ChEMBL ID>
CHEMBL2171124

>  <Molecule Max Phase>
None

>  <Molecular Weight>
451.45

>  <#RO5 Violations>
0

>  <AlogP>
4.37

>  <Compound Key>
1, GSK2606414

>  <Standard Type>
IC50

>  <Standard Relation>
'='

>  <Standard Value>
890.0

>  <Standard Units>
nM

$$$$

  Mrv2114 03112311372D          

 25 27  0  0  0  0            999 V2000
   -0.9851   -3.2777    0.0000 C   0  0  0  0  0  0  0  0  0  0  0  0
   -0.1781   -3.1062    0.0000 N   0  0  0  0  0  0  0  0  0  0  0  0
    0.3739   -3.7192    0.0000 C   0  0  0  0  0  0  0  0  0  0  0  0
    0.0768   -2.3215    0.0000 C   0  0  0  0  0  0  0  0  0  0  0  0
   -0.4752   -1.7084    0.0000 O   0  0  0  0  0  0  0  0  0  0  0  0
    0.8838   -2.1500    0.0000 C   0  0  0  0  0  0  0  0  0  0  0  0
    1.1387   -1.3654    0.0000 N   0  0  0  0  0  0  0  0  0  0  0  0
    0.6538   -0.6979    0.0000 C   0  0  0  0  0  0  0  0  0  0  0  0
    1.1387   -0.0305    0.0000 C   0  0  0  0  0  0  0  0  0  0  0  0
    1.9233   -0.2854    0.0000 C   0  0  0  0  0  0  0  0  0  0  0  0
    2.6378    0.1271    0.0000 N   0  0  0  0  0  0  0  0  0  0  0  0
    3.3523   -0.2854    0.0000 C   0  0  0  0  0  0  0  0  0  0  0  0
    3.3523   -1.1104    0.0000 C   0  0  0  0  0  0  0  0  0  0  0  0
    4.0668   -1.5229    0.0000 C   0  0  0  0  0  0  0  0  0  0  0  0
    4.7812   -1.1104    0.0000 C   0  0  0  0  0  0  0  0  0  0  0  0
    5.4957   -1.5229    0.0000 C   0  0  0  0  0  0  0  0  0  0  0  0
    5.4957   -2.3479    0.0000 C   0  0  0  0  0  0  0  0  0  0  0  0
    6.2102   -2.7604    0.0000 F   0  0  0  0  0  0  0  0  0  0  0  0
    4.7812   -2.7604    0.0000 C   0  0  0  0  0  0  0  0  0  0  0  0
    4.7812   -3.5854    0.0000 C   0  0  0  0  0  0  0  0  0  0  0  0
    4.0668   -3.9979    0.0000 F   0  0  0  0  0  0  0  0  0  0  0  0
    5.4957   -3.9979    0.0000 F   0  0  0  0  0  0  0  0  0  0  0  0
    4.0668   -2.3479    0.0000 C   0  0  0  0  0  0  0  0  0  0  0  0
    2.6378   -1.5229    0.0000 C   0  0  0  0  0  0  0  0  0  0  0  0
    1.9233   -1.1104    0.0000 C   0  0  0  0  0  0  0  0  0  0  0  0
  1  2  1  0  0  0  0
  2  3  1  0  0  0  0
  2  4  1  0  0  0  0
  4  5  2  0  0  0  0
  4  6  1  0  0  0  0
  6  7  1  0  0  0  0
  7  8  4  0  0  0  0
  8  9  4  0  0  0  0
  9 10  4  0  0  0  0
 10 11  4  0  0  0  0
 11 12  4  0  0  0  0
 12 13  4  0  0  0  0
 13 14  1  0  0  0  0
 14 15  4  0  0  0  0
 15 16  4  0  0  0  0
 16 17  4  0  0  0  0
 17 18  1  0  0  0  0
 17 19  4  0  0  0  0
 19 20  1  0  0  0  0
 20 21  1  0  0  0  0
 20 22  1  0  0  0  0
 19 23  4  0  0  0  0
 14 23  4  0  0  0  0
 13 24  4  0  0  0  0
 24 25  4  0  0  0  0
 10 25  4  0  0  0  0
  7 25  4  0  0  0  0
M  END
>  <CdId>
244

>  <Mol Weight>
347.341

>  <Formula>
C18H16F3N3O

>  <Molecule ChEMBL ID>
CHEMBL4547576

>  <Molecule Max Phase>
None

>  <Molecular Weight>
347.34

>  <#RO5 Violations>
0

>  <AlogP>
3.87

>  <Compound Key>
27

>  <Standard Type>
IC50

>  <Standard Relation>
'>'

>  <Standard Value>
10000.0

>  <Standard Units>
nM

$$$$

  Mrv2114 03112311372D          

 38 43  0  0  0  0            999 V2000
   -0.1712    0.7310    0.0000 N   0  0  0  0  0  0  0  0  0  0  0  0
   -0.5837    0.0165    0.0000 C   0  0  0  0  0  0  0  0  0  0  0  0
   -1.4087    0.0165    0.0000 N   0  0  0  0  0  0  0  0  0  0  0  0
   -1.8212   -0.6979    0.0000 C   0  0  0  0  0  0  0  0  0  0  0  0
   -1.4087   -1.4124    0.0000 C   0  0  0  0  0  0  0  0  0  0  0  0
   -0.5837   -1.4124    0.0000 C   0  0  0  0  0  0  0  0  0  0  0  0
   -0.1712   -0.6979    0.0000 C   0  0  0  0  0  0  0  0  0  0  0  0
    0.6538   -0.6979    0.0000 C   0  0  0  0  0  0  0  0  0  0  0  0
    1.1387   -0.0305    0.0000 N   0  0  0  0  0  0  0  0  0  0  0  0
    1.9233   -0.2854    0.0000 C   0  0  0  0  0  0  0  0  0  0  0  0
    2.6378    0.1271    0.0000 C   0  0  0  0  0  0  0  0  0  0  0  0
    3.3523   -0.2854    0.0000 C   0  0  0  0  0  0  0  0  0  0  0  0
    4.0668    0.1271    0.0000 C   0  0  0  0  0  0  0  0  0  0  0  0
    4.0668    0.9521    0.0000 C   0  0  0  0  0  0  0  0  0  0  0  0
    4.7812    1.3646    0.0000 C   0  0  0  0  0  0  0  0  0  0  0  0
    5.4957    0.9521    0.0000 C   0  0  0  0  0  0  0  0  0  0  0  0
    5.4957    0.1271    0.0000 N   0  0  0  0  0  0  0  0  0  0  0  0
    4.7812   -0.2854    0.0000 C   0  0  0  0  0  0  0  0  0  0  0  0
    3.3523   -1.1104    0.0000 C   0  0  0  0  0  0  0  0  0  0  0  0
    2.6378   -1.5229    0.0000 N   0  0  0  0  0  0  0  0  0  0  0  0
    1.9233   -1.1104    0.0000 C   0  0  0  0  0  0  0  0  0  0  0  0
    1.1387   -1.3654    0.0000 N   0  0  0  0  0  0  0  0  0  0  0  0
    0.8838   -2.1500    0.0000 C   0  0  0  0  0  0  0  0  0  0  0  0
    1.4358   -2.7631    0.0000 C   0  0  0  0  0  0  0  0  0  0  0  0
    1.1809   -3.5477    0.0000 C   0  0  0  0  0  0  0  0  0  0  0  0
    0.3739   -3.7192    0.0000 C   0  0  0  0  0  0  0  0  0  0  0  0
    0.1190   -4.5039    0.0000 C   0  0  0  0  0  0  0  0  0  0  0  0
    0.6710   -5.1170    0.0000 N   0  0  0  0  0  0  0  0  0  0  0  0
    1.4780   -4.9454    0.0000 C   0  0  0  0  0  0  0  0  0  0  0  0
    1.7329   -4.1608    0.0000 O   0  0  0  0  0  0  0  0  0  0  0  0
    2.0300   -5.5585    0.0000 C   0  0  0  0  0  0  0  0  0  0  0  0
    2.8370   -5.3870    0.0000 C   0  0  0  0  0  0  0  0  0  0  0  0
    3.3890   -6.0001    0.0000 C   0  0  0  0  0  0  0  0  0  0  0  0
    3.1341   -6.7847    0.0000 C   0  0  0  0  0  0  0  0  0  0  0  0
    2.3271   -6.9562    0.0000 C   0  0  0  0  0  0  0  0  0  0  0  0
    1.7751   -6.3432    0.0000 C   0  0  0  0  0  0  0  0  0  0  0  0
   -0.1781   -3.1062    0.0000 C   0  0  0  0  0  0  0  0  0  0  0  0
    0.0768   -2.3215    0.0000 C   0  0  0  0  0  0  0  0  0  0  0  0
  1  2  1  0  0  0  0
  2  3  4  0  0  0  0
  3  4  4  0  0  0  0
  4  5  4  0  0  0  0
  5  6  4  0  0  0  0
  6  7  4  0  0  0  0
  2  7  4  0  0  0  0
  7  8  1  0  0  0  0
  8  9  4  0  0  0  0
  9 10  4  0  0  0  0
 10 11  4  0  0  0  0
 11 12  4  0  0  0  0
 12 13  1  0  0  0  0
 13 14  4  0  0  0  0
 14 15  4  0  0  0  0
 15 16  4  0  0  0  0
 16 17  4  0  0  0  0
 17 18  4  0  0  0  0
 13 18  4  0  0  0  0
 12 19  4  0  0  0  0
 19 20  4  0  0  0  0
 20 21  4  0  0  0  0
 10 21  4  0  0  0  0
 21 22  4  0  0  0  0
  8 22  4  0  0  0  0
 22 23  1  0  0  0  0
 23 24  4  0  0  0  0
 24 25  4  0  0  0  0
 25 26  4  0  0  0  0
 26 27  1  0  0  0  0
 27 28  1  0  0  0  0
 28 29  1  0  0  0  0
 29 30  2  0  0  0  0
 29 31  1  0  0  0  0
 31 32  4  0  0  0  0
 32 33  4  0  0  0  0
 33 34  4  0  0  0  0
 34 35  4  0  0  0  0
 35 36  4  0  0  0  0
 31 36  4  0  0  0  0
 26 37  4  0  0  0  0
 37 38  4  0  0  0  0
 23 38  4  0  0  0  0
M  END
>  <CdId>
245

>  <Mol Weight>
497.562

>  <Formula>
C30H23N7O

>  <Molecule ChEMBL ID>
CHEMBL2177831

>  <Molecule Max Phase>
None

>  <Molecular Weight>
497.56

>  <#RO5 Violations>
1

>  <AlogP>
5.06

>  <Compound Key>
12e

>  <Standard Type>
IC50

>  <Standard Relation>
'>'

>  <Standard Value>
10000.0

>  <Standard Units>
nM

$$$$

  Mrv2114 03112311372D          

 28 30  0  0  0  0            999 V2000
   -5.7158   -4.9500    0.0000 C   0  0  0  0  0  0  0  0  0  0  0  0
   -5.0013   -5.3625    0.0000 C   0  0  0  0  0  0  0  0  0  0  0  0
   -5.0013   -6.1875    0.0000 C   0  0  0  0  0  0  0  0  0  0  0  0
   -4.2868   -6.6000    0.0000 C   0  0  0  0  0  0  0  0  0  0  0  0
   -4.2868   -7.4250    0.0000 C   0  0  0  0  0  0  0  0  0  0  0  0
   -3.5724   -7.8375    0.0000 C   0  0  0  0  0  0  0  0  0  0  0  0
   -3.5724   -8.6625    0.0000 C   0  0  0  0  0  0  0  0  0  0  0  0
   -4.2868   -9.0750    0.0000 C   0  0  0  0  0  0  0  0  0  0  0  0
   -5.0013   -8.6625    0.0000 C   0  0  0  0  0  0  0  0  0  0  0  0
   -5.0013   -7.8375    0.0000 C   0  0  0  0  0  0  0  0  0  0  0  0
   -3.5724   -6.1875    0.0000 C   0  0  0  0  0  0  0  0  0  0  0  0
   -3.5724   -5.3625    0.0000 C   0  0  0  0  0  0  0  0  0  0  0  0
   -2.8579   -4.9500    0.0000 C   0  0  0  0  0  0  0  0  0  0  0  0
   -2.1434   -5.3625    0.0000 C   0  0  0  0  0  0  0  0  0  0  0  0
   -1.4289   -4.9500    0.0000 O   0  0  0  0  0  0  0  0  0  0  0  0
   -0.7145   -5.3625    0.0000 C   0  0  0  0  0  0  0  0  0  0  0  0
    0.0000   -4.9500    0.0000 C   0  0  0  0  0  0  0  0  0  0  0  0
    0.7145   -5.3625    0.0000 N   0  0  0  0  0  0  0  0  0  0  0  0
    1.4289   -4.9500    0.0000 C   0  0  0  0  0  0  0  0  0  0  0  0
    0.7145   -6.1875    0.0000 C   0  0  0  0  0  0  0  0  0  0  0  0
   -2.1434   -6.1875    0.0000 C   0  0  0  0  0  0  0  0  0  0  0  0
   -2.8579   -6.6000    0.0000 C   0  0  0  0  0  0  0  0  0  0  0  0
   -5.7158   -6.6000    0.0000 C   0  0  0  0  0  0  0  0  0  0  0  0
   -5.7158   -7.4250    0.0000 C   0  0  0  0  0  0  0  0  0  0  0  0
   -6.4302   -7.8375    0.0000 C   0  0  0  0  0  0  0  0  0  0  0  0
   -7.1447   -7.4250    0.0000 C   0  0  0  0  0  0  0  0  0  0  0  0
   -7.1447   -6.6000    0.0000 C   0  0  0  0  0  0  0  0  0  0  0  0
   -6.4302   -6.1875    0.0000 C   0  0  0  0  0  0  0  0  0  0  0  0
  1  2  1  0  0  0  0
  3  2  1  4  0  0  0
  3  4  2  0  0  0  0
  4  5  1  0  0  0  0
  5  6  4  0  0  0  0
  6  7  4  0  0  0  0
  7  8  4  0  0  0  0
  8  9  4  0  0  0  0
  9 10  4  0  0  0  0
  5 10  4  0  0  0  0
  4 11  1  0  0  0  0
 11 12  4  0  0  0  0
 12 13  4  0  0  0  0
 13 14  4  0  0  0  0
 14 15  1  0  0  0  0
 15 16  1  0  0  0  0
 16 17  1  0  0  0  0
 17 18  1  0  0  0  0
 18 19  1  0  0  0  0
 18 20  1  0  0  0  0
 14 21  4  0  0  0  0
 21 22  4  0  0  0  0
 11 22  4  0  0  0  0
  3 23  1  0  0  0  0
 23 24  4  0  0  0  0
 24 25  4  0  0  0  0
 25 26  4  0  0  0  0
 26 27  4  0  0  0  0
 27 28  4  0  0  0  0
 23 28  4  0  0  0  0
M  END
>  <CdId>
246

>  <Mol Weight>
371.524

>  <Formula>
C26H29NO

>  <Molecule ChEMBL ID>
CHEMBL83

>  <Molecule Name>
TAMOXIFEN

>  <Molecule Max Phase>
4

>  <Molecular Weight>
371.52

>  <#RO5 Violations>
1

>  <AlogP>
6

>  <Compound Key>
Tamoxifen

>  <Standard Type>
IC50

>  <Standard Relation>
'='

>  <Standard Value>
14300.0

>  <Standard Units>
nM

$$$$

  Mrv2114 03112311372D          

 32 35  0  0  0  0            999 V2000
    0.0000    0.0000    0.0000 C   0  0  0  0  0  0  0  0  0  0  0  0
    0.7145   -0.4125    0.0000 C   0  0  0  0  0  0  0  0  0  0  0  0
    1.4289   -0.0000    0.0000 C   0  0  0  0  0  0  0  0  0  0  0  0
    1.4289    0.8250    0.0000 C   0  0  0  0  0  0  0  0  0  0  0  0
    2.1434    1.2375    0.0000 C   0  0  0  0  0  0  0  0  0  0  0  0
    2.8579    0.8250    0.0000 C   0  0  0  0  0  0  0  0  0  0  0  0
    2.8579    0.0000    0.0000 C   0  0  0  0  0  0  0  0  0  0  0  0
    3.5724   -0.4125    0.0000 C   0  0  0  0  0  0  0  0  0  0  0  0
    4.2868   -0.8250    0.0000 F   0  0  0  0  0  0  0  0  0  0  0  0
    3.9849    0.3020    0.0000 F   0  0  0  0  0  0  0  0  0  0  0  0
    3.1599   -1.1270    0.0000 F   0  0  0  0  0  0  0  0  0  0  0  0
    2.1434   -0.4125    0.0000 C   0  0  0  0  0  0  0  0  0  0  0  0
    0.7145   -1.2375    0.0000 N   0  0  0  0  0  0  0  0  0  0  0  0
    1.3819   -1.7224    0.0000 C   0  0  0  0  0  0  0  0  0  0  0  0
    1.1270   -2.5070    0.0000 N   0  0  0  0  0  0  0  0  0  0  0  0
    0.3020   -2.5070    0.0000 C   0  0  0  0  0  0  0  0  0  0  0  0
   -0.1830   -3.1745    0.0000 N   0  0  0  0  0  0  0  0  0  0  0  0
    0.1526   -3.9282    0.0000 C   0  0  0  0  0  0  0  0  0  0  0  0
   -0.3323   -4.5956    0.0000 C   0  0  0  0  0  0  0  0  0  0  0  0
   -1.1528   -4.5094    0.0000 C   0  0  0  0  0  0  0  0  0  0  0  0
   -1.6377   -5.1768    0.0000 N   0  0  0  0  0  0  0  0  0  0  0  0
   -1.3022   -5.9305    0.0000 C   0  0  0  0  0  0  0  0  0  0  0  0
   -0.4817   -6.0167    0.0000 O   0  0  0  0  0  0  0  0  0  0  0  0
   -1.7871   -6.5979    0.0000 C   0  0  0  0  0  0  0  0  0  0  0  0
   -1.5321   -7.3825    0.0000 C   0  0  0  0  0  0  0  0  0  0  0  0
   -2.1996   -7.8675    0.0000 S   0  0  0  0  0  0  0  0  0  0  0  0
   -2.8670   -7.3825    0.0000 C   0  0  0  0  0  0  0  0  0  0  0  0
   -2.6121   -6.5979    0.0000 N   0  0  0  0  0  0  0  0  0  0  0  0
   -1.4884   -3.7557    0.0000 C   0  0  0  0  0  0  0  0  0  0  0  0
   -1.0034   -3.0882    0.0000 C   0  0  0  0  0  0  0  0  0  0  0  0
   -1.3390   -2.3346    0.0000 O   0  0  0  0  0  0  0  0  0  0  0  0
    0.0470   -1.7224    0.0000 C   0  0  0  0  0  0  0  0  0  0  0  0
  1  2  1  0  0  0  0
  2  3  1  0  0  0  0
  3  4  4  0  0  0  0
  4  5  4  0  0  0  0
  5  6  4  0  0  0  0
  6  7  4  0  0  0  0
  7  8  1  0  0  0  0
  8  9  1  0  0  0  0
  8 10  1  0  0  0  0
  8 11  1  0  0  0  0
  7 12  4  0  0  0  0
  3 12  4  0  0  0  0
  2 13  1  0  0  0  0
 13 14  4  0  0  0  0
 14 15  4  0  0  0  0
 15 16  4  0  0  0  0
 16 17  1  0  0  0  0
 17 18  4  0  0  0  0
 18 19  4  0  0  0  0
 19 20  4  0  0  0  0
 20 21  1  0  0  0  0
 21 22  1  0  0  0  0
 22 23  2  0  0  0  0
 22 24  1  0  0  0  0
 24 25  4  0  0  0  0
 25 26  4  0  0  0  0
 26 27  4  0  0  0  0
 27 28  4  0  0  0  0
 24 28  4  0  0  0  0
 20 29  4  0  0  0  0
 29 30  4  0  0  0  0
 17 30  4  0  0  0  0
 30 31  2  0  0  0  0
 16 32  4  0  0  0  0
 13 32  4  0  0  0  0
M  END
>  <CdId>
247

>  <Mol Weight>
459.45

>  <Formula>
C21H16F3N5O2S

>  <Molecule ChEMBL ID>
CHEMBL3808842

>  <Molecule Max Phase>
None

>  <Molecular Weight>
459.45

>  <#RO5 Violations>
0

>  <AlogP>
4.37

>  <Compound Key>
21

>  <Standard Type>
IC50

>  <Standard Relation>
'='

>  <Standard Value>
1700.0

>  <Standard Units>
nM

$$$$

  Mrv2114 03112311372D          

 24 25  0  0  0  0            999 V2000
    3.2704   -1.5395    0.0000 O   0  0  0  0  0  0  0  0  0  0  0  0
    2.8579   -0.8250    0.0000 S   0  0  0  0  0  0  0  0  0  0  0  0
    2.4454   -0.1105    0.0000 O   0  0  0  0  0  0  0  0  0  0  0  0
    2.1434   -1.2375    0.0000 N   0  0  0  0  0  0  0  0  0  0  0  0
    2.1434   -2.0625    0.0000 C   0  0  0  0  0  0  0  0  0  0  0  0
    2.8579   -2.4750    0.0000 C   0  0  0  0  0  0  0  0  0  0  0  0
    2.8579   -3.3000    0.0000 C   0  0  0  0  0  0  0  0  0  0  0  0
    2.1434   -3.7125    0.0000 C   0  0  0  0  0  0  0  0  0  0  0  0
    2.1434   -4.5375    0.0000 C   0  0  0  0  0  0  0  0  0  0  0  0
    2.1434   -5.3625    0.0000 F   0  0  0  0  0  0  0  0  0  0  0  0
    2.9684   -4.5375    0.0000 F   0  0  0  0  0  0  0  0  0  0  0  0
    1.3184   -4.5375    0.0000 F   0  0  0  0  0  0  0  0  0  0  0  0
    1.4289   -3.3000    0.0000 N   0  0  0  0  0  0  0  0  0  0  0  0
    1.4289   -2.4750    0.0000 C   0  0  0  0  0  0  0  0  0  0  0  0
    3.5724   -0.4125    0.0000 C   0  0  0  0  0  0  0  0  0  0  0  0
    3.5724    0.4125    0.0000 C   0  0  0  0  0  0  0  0  0  0  0  0
    4.2868    0.8250    0.0000 C   0  0  0  0  0  0  0  0  0  0  0  0
    5.0013    0.4125    0.0000 C   0  0  0  0  0  0  0  0  0  0  0  0
    5.0013   -0.4125    0.0000 C   0  0  0  0  0  0  0  0  0  0  0  0
    4.2868   -0.8250    0.0000 C   0  0  0  0  0  0  0  0  0  0  0  0
    4.2868   -1.6500    0.0000 C   0  0  0  0  0  0  0  0  0  0  0  0
    4.2868   -2.4750    0.0000 F   0  0  0  0  0  0  0  0  0  0  0  0
    3.5022   -1.9049    0.0000 F   0  0  0  0  0  0  0  0  0  0  0  0
    5.1118   -1.6500    0.0000 F   0  0  0  0  0  0  0  0  0  0  0  0
  1  2  2  0  0  0  0
  2  3  2  0  0  0  0
  2  4  1  0  0  0  0
  4  5  1  0  0  0  0
  5  6  4  0  0  0  0
  6  7  4  0  0  0  0
  7  8  4  0  0  0  0
  8  9  1  0  0  0  0
  9 10  1  0  0  0  0
  9 11  1  0  0  0  0
  9 12  1  0  0  0  0
  8 13  4  0  0  0  0
 13 14  4  0  0  0  0
  5 14  4  0  0  0  0
  2 15  1  0  0  0  0
 15 16  4  0  0  0  0
 16 17  4  0  0  0  0
 17 18  4  0  0  0  0
 18 19  4  0  0  0  0
 19 20  4  0  0  0  0
 15 20  4  0  0  0  0
 20 21  1  0  0  0  0
 21 22  1  0  0  0  0
 21 23  1  0  0  0  0
 21 24  1  0  0  0  0
M  END
>  <CdId>
248

>  <Mol Weight>
370.27

>  <Formula>
C13H8F6N2O2S

>  <Molecule ChEMBL ID>
CHEMBL3924161

>  <Molecule Max Phase>
None

>  <Molecular Weight>
370.27

>  <#RO5 Violations>
0

>  <AlogP>
3.92

>  <Compound Key>
46

>  <Standard Type>
IC50

>  <Standard Relation>
'>'

>  <Standard Value>
30000.0

>  <Standard Units>
nM

$$$$

  Mrv2114 03112311372D          

 32 35  0  0  0  0            999 V2000
    2.7512    0.7634    0.0000 C   0  0  0  0  0  0  0  0  0  0  0  0
    2.7512   -0.0616    0.0000 C   0  0  0  0  0  0  0  0  0  0  0  0
    3.4656   -0.4741    0.0000 C   0  0  0  0  0  0  0  0  0  0  0  0
    3.4656   -1.2991    0.0000 C   0  0  0  0  0  0  0  0  0  0  0  0
    2.7512   -1.7116    0.0000 C   0  0  0  0  0  0  0  0  0  0  0  0
    2.7512   -2.5366    0.0000 N   0  0  0  0  0  0  0  0  0  0  0  0
    2.0837   -3.0215    0.0000 N   0  0  0  0  0  0  0  0  0  0  0  0
    2.3387   -3.8062    0.0000 C   0  0  0  0  0  0  0  0  0  0  0  0
    1.8538   -4.4736    0.0000 C   0  0  0  0  0  0  0  0  0  0  0  0
    1.3688   -5.1410    0.0000 C   0  0  0  0  0  0  0  0  0  0  0  0
    1.1863   -3.9887    0.0000 C   0  0  0  0  0  0  0  0  0  0  0  0
    2.5212   -4.9585    0.0000 C   0  0  0  0  0  0  0  0  0  0  0  0
    3.1637   -3.8062    0.0000 C   0  0  0  0  0  0  0  0  0  0  0  0
    3.4186   -3.0215    0.0000 C   0  0  0  0  0  0  0  0  0  0  0  0
    4.2032   -2.7666    0.0000 N   0  0  0  0  0  0  0  0  0  0  0  0
    4.8163   -3.3186    0.0000 C   0  0  0  0  0  0  0  0  0  0  0  0
    4.6448   -4.1256    0.0000 O   0  0  0  0  0  0  0  0  0  0  0  0
    5.6010   -3.0637    0.0000 N   0  0  0  0  0  0  0  0  0  0  0  0
    6.2140   -3.6157    0.0000 C   0  0  0  0  0  0  0  0  0  0  0  0
    6.9987   -3.3608    0.0000 C   0  0  0  0  0  0  0  0  0  0  0  0
    7.6118   -3.9128    0.0000 C   0  0  0  0  0  0  0  0  0  0  0  0
    7.4402   -4.7198    0.0000 C   0  0  0  0  0  0  0  0  0  0  0  0
    8.0533   -5.2718    0.0000 N   0  0  0  0  0  0  0  0  0  0  0  0
    8.8603   -5.1003    0.0000 C   0  0  0  0  0  0  0  0  0  0  0  0
    9.2728   -5.8148    0.0000 N   0  0  0  0  0  0  0  0  0  0  0  0
    8.7208   -6.4279    0.0000 C   0  0  0  0  0  0  0  0  0  0  0  0
    7.9671   -6.0923    0.0000 C   0  0  0  0  0  0  0  0  0  0  0  0
    7.2526   -6.5048    0.0000 C   0  0  0  0  0  0  0  0  0  0  0  0
    6.6556   -4.9747    0.0000 C   0  0  0  0  0  0  0  0  0  0  0  0
    6.0425   -4.4227    0.0000 C   0  0  0  0  0  0  0  0  0  0  0  0
    2.0367   -1.2991    0.0000 C   0  0  0  0  0  0  0  0  0  0  0  0
    2.0367   -0.4741    0.0000 C   0  0  0  0  0  0  0  0  0  0  0  0
  1  2  1  0  0  0  0
  2  3  4  0  0  0  0
  3  4  4  0  0  0  0
  4  5  4  0  0  0  0
  5  6  1  0  0  0  0
  6  7  4  0  0  0  0
  7  8  4  0  0  0  0
  8  9  1  0  0  0  0
  9 10  1  0  0  0  0
  9 11  1  0  0  0  0
  9 12  1  0  0  0  0
  8 13  4  0  0  0  0
 13 14  4  0  0  0  0
  6 14  4  0  0  0  0
 14 15  1  0  0  0  0
 15 16  1  0  0  0  0
 16 17  2  0  0  0  0
 16 18  1  0  0  0  0
 18 19  1  0  0  0  0
 19 20  4  0  0  0  0
 20 21  4  0  0  0  0
 21 22  4  0  0  0  0
 22 23  1  0  0  0  0
 23 24  4  0  0  0  0
 24 25  4  0  0  0  0
 25 26  4  0  0  0  0
 26 27  4  0  0  0  0
 23 27  4  0  0  0  0
 27 28  1  0  0  0  0
 22 29  4  0  0  0  0
 29 30  4  0  0  0  0
 19 30  4  0  0  0  0
  5 31  4  0  0  0  0
 31 32  4  0  0  0  0
  2 32  4  0  0  0  0
M  END
>  <CdId>
249

>  <Mol Weight>
428.54

>  <Formula>
C25H28N6O

>  <Molecule ChEMBL ID>
CHEMBL2425150

>  <Molecule Max Phase>
None

>  <Molecular Weight>
428.54

>  <#RO5 Violations>
1

>  <AlogP>
5.62

>  <Compound Key>
21

>  <Standard Type>
IC50

>  <Standard Relation>
'>'

>  <Standard Value>
10000.0

>  <Standard Units>
nM

$$$$

  Mrv2114 03112311372D          

 25 27  0  0  0  0            999 V2000
    1.3222   -0.8866    0.0000 O   0  0  0  0  0  0  0  0  0  0  0  0
    2.0367   -1.2991    0.0000 C   0  0  0  0  0  0  0  0  0  0  0  0
    2.7512   -0.8866    0.0000 N   0  0  0  0  0  0  0  0  0  0  0  0
    2.7512   -0.0616    0.0000 C   0  0  0  0  0  0  0  0  0  0  0  0
    3.4656    0.3509    0.0000 C   0  0  0  0  0  0  0  0  0  0  0  0
    3.4656    1.1759    0.0000 C   0  0  0  0  0  0  0  0  0  0  0  0
    4.1801    1.5884    0.0000 C   0  0  0  0  0  0  0  0  0  0  0  0
    4.8946    1.1759    0.0000 N   0  0  0  0  0  0  0  0  0  0  0  0
    4.8946    0.3509    0.0000 C   0  0  0  0  0  0  0  0  0  0  0  0
    4.1801   -0.0616    0.0000 C   0  0  0  0  0  0  0  0  0  0  0  0
    2.0367   -2.1241    0.0000 C   0  0  0  0  0  0  0  0  0  0  0  0
    2.7041   -2.6090    0.0000 N   0  0  0  0  0  0  0  0  0  0  0  0
    2.4492   -3.3937    0.0000 N   0  0  0  0  0  0  0  0  0  0  0  0
    1.6242   -3.3937    0.0000 C   0  0  0  0  0  0  0  0  0  0  0  0
    1.1393   -4.0611    0.0000 C   0  0  0  0  0  0  0  0  0  0  0  0
    0.3188   -3.9749    0.0000 S   0  0  0  0  0  0  0  0  0  0  0  0
    0.4050   -3.1544    0.0000 O   0  0  0  0  0  0  0  0  0  0  0  0
    0.2326   -4.7953    0.0000 O   0  0  0  0  0  0  0  0  0  0  0  0
   -0.5017   -3.8886    0.0000 C   0  0  0  0  0  0  0  0  0  0  0  0
   -0.9866   -4.5561    0.0000 C   0  0  0  0  0  0  0  0  0  0  0  0
   -1.8071   -4.4698    0.0000 C   0  0  0  0  0  0  0  0  0  0  0  0
   -2.1426   -3.7161    0.0000 C   0  0  0  0  0  0  0  0  0  0  0  0
   -1.6577   -3.0487    0.0000 C   0  0  0  0  0  0  0  0  0  0  0  0
   -0.8372   -3.1349    0.0000 C   0  0  0  0  0  0  0  0  0  0  0  0
    1.3693   -2.6090    0.0000 O   0  0  0  0  0  0  0  0  0  0  0  0
  1  2  2  0  0  0  0
  2  3  1  0  0  0  0
  3  4  1  0  0  0  0
  4  5  1  0  0  0  0
  5  6  4  0  0  0  0
  6  7  4  0  0  0  0
  7  8  4  0  0  0  0
  8  9  4  0  0  0  0
  9 10  4  0  0  0  0
  5 10  4  0  0  0  0
  2 11  1  0  0  0  0
 11 12  4  0  0  0  0
 12 13  4  0  0  0  0
 13 14  4  0  0  0  0
 14 15  1  0  0  0  0
 15 16  1  0  0  0  0
 16 17  2  0  0  0  0
 16 18  2  0  0  0  0
 16 19  1  0  0  0  0
 19 20  4  0  0  0  0
 20 21  4  0  0  0  0
 21 22  4  0  0  0  0
 22 23  4  0  0  0  0
 23 24  4  0  0  0  0
 19 24  4  0  0  0  0
 14 25  4  0  0  0  0
 11 25  4  0  0  0  0
M  END
>  <CdId>
250

>  <Mol Weight>
358.37

>  <Formula>
C16H14N4O4S

>  <Molecule ChEMBL ID>
CHEMBL2069802

>  <Molecule Max Phase>
None

>  <Molecular Weight>
358.38

>  <#RO5 Violations>
0

>  <AlogP>
1.37

>  <Compound Key>
22

>  <Standard Type>
IC50

>  <Standard Relation>
'>'

>  <Standard Value>
20000.0

>  <Standard Units>
nM

$$$$

  Mrv2114 03112311372D          

 39 40  0  0  1  0            999 V2000
   -0.5230    8.9095    0.0000 C   0  0  0  0  0  0  0  0  0  0  0  0
   -0.1105    8.1950    0.0000 C   0  0  0  0  0  0  0  0  0  0  0  0
   -0.5230    7.4805    0.0000 C   0  0  2  0  0  0  0  0  0  0  0  0
   -0.1105    6.7661    0.0000 N   0  0  0  0  0  0  0  0  0  0  0  0
    0.7145    6.7661    0.0000 S   0  0  0  0  0  0  0  0  0  0  0  0
    1.5395    6.7661    0.0000 O   0  0  0  0  0  0  0  0  0  0  0  0
    0.7145    7.5911    0.0000 O   0  0  0  0  0  0  0  0  0  0  0  0
    0.7145    5.9411    0.0000 C   0  0  0  0  0  0  0  0  0  0  0  0
    1.4289    5.5286    0.0000 C   0  0  0  0  0  0  0  0  0  0  0  0
    1.4289    4.7036    0.0000 C   0  0  0  0  0  0  0  0  0  0  0  0
    0.7145    4.2911    0.0000 C   0  0  0  0  0  0  0  0  0  0  0  0
    0.7145    3.4661    0.0000 C   0  0  0  0  0  0  0  0  0  0  0  0
    0.0470    2.9812    0.0000 S   0  0  0  0  0  0  0  0  0  0  0  0
    0.3020    2.1965    0.0000 C   0  0  0  0  0  0  0  0  0  0  0  0
   -0.1830    1.5291    0.0000 C   0  0  0  0  0  0  0  0  0  0  0  0
   -1.0034    1.6153    0.0000 O   0  0  0  0  0  0  0  0  0  0  0  0
    0.1526    0.7754    0.0000 N   0  0  0  0  0  0  0  0  0  0  0  0
   -0.3323    0.1080    0.0000 C   0  0  0  0  0  0  0  0  0  0  0  0
   -1.1528    0.1942    0.0000 C   0  0  0  0  0  0  0  0  0  0  0  0
   -1.9733    0.2804    0.0000 C   0  0  0  0  0  0  0  0  0  0  0  0
   -1.0666    1.0147    0.0000 C   0  0  0  0  0  0  0  0  0  0  0  0
   -1.2390   -0.6263    0.0000 O   0  0  0  0  0  0  0  0  0  0  0  0
    1.1270    2.1965    0.0000 N   0  0  0  0  0  0  0  0  0  0  0  0
    1.3819    2.9812    0.0000 C   0  0  0  0  0  0  0  0  0  0  0  0
    2.1665    3.2361    0.0000 C   0  0  0  0  0  0  0  0  0  0  0  0
    2.3381    4.0431    0.0000 O   0  0  0  0  0  0  0  0  0  0  0  0
    2.7796    2.6841    0.0000 N   0  0  0  0  0  0  0  0  0  0  0  0
    3.5642    2.9390    0.0000 C   0  0  0  0  0  0  0  0  0  0  0  0
    4.1773    2.3870    0.0000 C   0  0  0  0  0  0  0  0  0  0  0  0
    2.6081    1.8771    0.0000 C   0  0  0  0  0  0  0  0  0  0  0  0
    1.8235    1.6221    0.0000 C   0  0  0  0  0  0  0  0  0  0  0  0
   -0.0000    4.7036    0.0000 C   0  0  0  0  0  0  0  0  0  0  0  0
   -0.7145    4.2911    0.0000 Cl  0  0  0  0  0  0  0  0  0  0  0  0
   -0.0000    5.5286    0.0000 C   0  0  0  0  0  0  0  0  0  0  0  0
   -0.7145    5.9411    0.0000 Cl  0  0  0  0  0  0  0  0  0  0  0  0
   -1.3480    7.4805    0.0000 C   0  0  0  0  0  0  0  0  0  0  0  0
   -2.1730    7.4805    0.0000 F   0  0  0  0  0  0  0  0  0  0  0  0
   -1.3480    6.6555    0.0000 F   0  0  0  0  0  0  0  0  0  0  0  0
   -1.3480    8.3055    0.0000 F   0  0  0  0  0  0  0  0  0  0  0  0
  1  2  1  0  0  0  0
  3  2  1  0  0  0  0
  3  4  1  6  0  0  0
  4  5  1  0  0  0  0
  5  6  2  0  0  0  0
  5  7  2  0  0  0  0
  5  8  1  0  0  0  0
  8  9  4  0  0  0  0
  9 10  4  0  0  0  0
 10 11  4  0  0  0  0
 11 12  1  0  0  0  0
 12 13  4  0  0  0  0
 13 14  4  0  0  0  0
 14 15  1  0  0  0  0
 15 16  2  0  0  0  0
 15 17  1  0  0  0  0
 17 18  1  0  0  0  0
 18 19  1  0  0  0  0
 19 20  1  0  0  0  0
 19 21  1  0  0  0  0
 19 22  1  0  0  0  0
 14 23  4  0  0  0  0
 23 24  4  0  0  0  0
 12 24  4  0  0  0  0
 24 25  1  0  0  0  0
 25 26  2  0  0  0  0
 25 27  1  0  0  0  0
 27 28  1  0  0  0  0
 28 29  1  0  0  0  0
 27 30  1  0  0  0  0
 30 31  1  0  0  0  0
 11 32  4  0  0  0  0
 32 33  1  0  0  0  0
 32 34  4  0  0  0  0
  8 34  4  0  0  0  0
 34 35  1  0  0  0  0
  3 36  1  0  0  0  0
 36 37  1  0  0  0  0
 36 38  1  0  0  0  0
 36 39  1  0  0  0  0
M  END
>  <CdId>
251

>  <Mol Weight>
633.52

>  <Formula>
C23H29Cl2F3N4O5S2

>  <Molecule ChEMBL ID>
CHEMBL4639653

>  <Molecule Max Phase>
None

>  <Molecular Weight>
633.54

>  <#RO5 Violations>
1

>  <AlogP>
4.72

>  <Compound Key>
5a

>  <Standard Type>
IC50

>  <Standard Relation>
'>'

>  <Standard Value>
10000.0

>  <Standard Units>
nM

$$$$

  Mrv2114 03112311372D          

 40 42  0  0  1  0            999 V2000
    0.8212    2.8259    0.0000 C   0  0  0  0  0  0  0  0  0  0  0  0
    0.1067    3.2384    0.0000 C   0  0  2  0  0  0  0  0  0  0  0  0
   -0.6078    2.8259    0.0000 N   0  0  0  0  0  0  0  0  0  0  0  0
   -0.6078    2.0009    0.0000 S   0  0  0  0  0  0  0  0  0  0  0  0
    0.2172    2.0009    0.0000 O   0  0  0  0  0  0  0  0  0  0  0  0
   -1.4328    2.0009    0.0000 O   0  0  0  0  0  0  0  0  0  0  0  0
   -0.6078    1.1759    0.0000 C   0  0  0  0  0  0  0  0  0  0  0  0
   -1.3222    0.7634    0.0000 C   0  0  0  0  0  0  0  0  0  0  0  0
   -1.3222   -0.0616    0.0000 C   0  0  0  0  0  0  0  0  0  0  0  0
   -0.6078   -0.4741    0.0000 C   0  0  0  0  0  0  0  0  0  0  0  0
   -0.6078   -1.2991    0.0000 C   0  0  0  0  0  0  0  0  0  0  0  0
    0.0597   -1.7840    0.0000 S   0  0  0  0  0  0  0  0  0  0  0  0
   -0.1953   -2.5687    0.0000 C   0  0  0  0  0  0  0  0  0  0  0  0
    0.2897   -3.2361    0.0000 N   0  0  0  0  0  0  0  0  0  0  0  0
   -0.0459   -3.9898    0.0000 C   0  0  0  0  0  0  0  0  0  0  0  0
   -0.8664   -4.0760    0.0000 O   0  0  0  0  0  0  0  0  0  0  0  0
    0.4390   -4.6572    0.0000 C   0  0  0  0  0  0  0  0  0  0  0  0
    0.1035   -5.4109    0.0000 C   0  0  0  0  0  0  0  0  0  0  0  0
   -0.2321   -6.1646    0.0000 C   0  0  0  0  0  0  0  0  0  0  0  0
    0.8571   -5.7464    0.0000 C   0  0  0  0  0  0  0  0  0  0  0  0
   -0.6502   -5.0753    0.0000 O   0  0  0  0  0  0  0  0  0  0  0  0
   -1.0203   -2.5687    0.0000 N   0  0  0  0  0  0  0  0  0  0  0  0
   -1.2752   -1.7840    0.0000 C   0  0  0  0  0  0  0  0  0  0  0  0
   -2.0598   -1.5291    0.0000 C   0  0  0  0  0  0  0  0  0  0  0  0
   -2.2314   -0.7221    0.0000 O   0  0  0  0  0  0  0  0  0  0  0  0
   -2.6729   -2.0811    0.0000 N   0  0  0  0  0  0  0  0  0  0  0  0
   -2.5014   -2.8881    0.0000 C   0  0  0  0  0  0  0  0  0  0  0  0
   -3.1145   -3.4401    0.0000 C   0  0  0  0  0  0  0  0  0  0  0  0
   -3.8991   -3.1852    0.0000 C   0  0  0  0  0  0  0  0  0  0  0  0
   -4.5122   -3.7372    0.0000 F   0  0  0  0  0  0  0  0  0  0  0  0
   -4.0706   -2.3782    0.0000 C   0  0  0  0  0  0  0  0  0  0  0  0
   -3.4575   -1.8262    0.0000 C   0  0  0  0  0  0  0  0  0  0  0  0
    0.1067   -0.0616    0.0000 C   0  0  0  0  0  0  0  0  0  0  0  0
    0.8212   -0.4741    0.0000 Cl  0  0  0  0  0  0  0  0  0  0  0  0
    0.1067    0.7634    0.0000 C   0  0  0  0  0  0  0  0  0  0  0  0
    0.8212    1.1759    0.0000 Cl  0  0  0  0  0  0  0  0  0  0  0  0
    0.1067    4.0634    0.0000 C   0  0  0  0  0  0  0  0  0  0  0  0
    0.1067    4.8884    0.0000 F   0  0  0  0  0  0  0  0  0  0  0  0
    0.9317    4.0634    0.0000 F   0  0  0  0  0  0  0  0  0  0  0  0
   -0.7183    4.0634    0.0000 F   0  0  0  0  0  0  0  0  0  0  0  0
  2  1  1  6  0  0  0
  2  3  1  0  0  0  0
  3  4  1  0  0  0  0
  4  5  2  0  0  0  0
  4  6  2  0  0  0  0
  4  7  1  0  0  0  0
  7  8  4  0  0  0  0
  8  9  4  0  0  0  0
  9 10  4  0  0  0  0
 10 11  1  0  0  0  0
 11 12  4  0  0  0  0
 12 13  4  0  0  0  0
 13 14  1  0  0  0  0
 14 15  1  0  0  0  0
 15 16  2  0  0  0  0
 15 17  1  0  0  0  0
 17 18  1  0  0  0  0
 18 19  1  0  0  0  0
 18 20  1  0  0  0  0
 18 21  1  0  0  0  0
 13 22  4  0  0  0  0
 22 23  4  0  0  0  0
 11 23  4  0  0  0  0
 23 24  1  0  0  0  0
 24 25  2  0  0  0  0
 24 26  1  0  0  0  0
 26 27  1  0  0  0  0
 27 28  1  0  0  0  0
 28 29  1  0  0  0  0
 29 30  1  0  0  0  0
 29 31  1  0  0  0  0
 31 32  1  0  0  0  0
 26 32  1  0  0  0  0
 10 33  4  0  0  0  0
 33 34  1  0  0  0  0
 33 35  4  0  0  0  0
  7 35  4  0  0  0  0
 35 36  1  0  0  0  0
  2 37  1  0  0  0  0
 37 38  1  0  0  0  0
 37 39  1  0  0  0  0
 37 40  1  0  0  0  0
M  END
>  <CdId>
252

>  <Mol Weight>
649.5

>  <Formula>
C23H26Cl2F4N4O5S2

>  <Molecule ChEMBL ID>
CHEMBL4648138

>  <Molecule Max Phase>
None

>  <Molecular Weight>
649.52

>  <#RO5 Violations>
2

>  <AlogP>
5.02

>  <Compound Key>
4p

>  <Standard Type>
IC50

>  <Standard Relation>
'>'

>  <Standard Value>
10000.0

>  <Standard Units>
nM

$$$$

  Mrv2114 03112311372D          

 35 38  0  0  0  0            999 V2000
    1.8500    2.0625    0.0000 C   0  0  0  0  0  0  0  0  0  0  0  0
    2.5645    2.4750    0.0000 C   0  0  0  0  0  0  0  0  0  0  0  0
    2.5645    3.3000    0.0000 C   0  0  0  0  0  0  0  0  0  0  0  0
    3.2789    3.7125    0.0000 C   0  0  0  0  0  0  0  0  0  0  0  0
    3.2789    4.5375    0.0000 Cl  0  0  0  0  0  0  0  0  0  0  0  0
    3.9934    3.3000    0.0000 C   0  0  0  0  0  0  0  0  0  0  0  0
    3.9934    2.4750    0.0000 C   0  0  0  0  0  0  0  0  0  0  0  0
    4.7079    2.0625    0.0000 O   0  0  0  0  0  0  0  0  0  0  0  0
    5.4223    2.4750    0.0000 C   0  0  0  0  0  0  0  0  0  0  0  0
    6.1368    2.0625    0.0000 C   0  0  0  0  0  0  0  0  0  0  0  0
    6.8513    2.4750    0.0000 N   0  0  0  0  0  0  0  0  0  0  0  0
    6.9375    3.2955    0.0000 C   0  0  0  0  0  0  0  0  0  0  0  0
    7.7445    3.4670    0.0000 C   0  0  0  0  0  0  0  0  0  0  0  0
    8.0800    4.2207    0.0000 F   0  0  0  0  0  0  0  0  0  0  0  0
    8.1570    2.7525    0.0000 C   0  0  0  0  0  0  0  0  0  0  0  0
    7.6050    2.1394    0.0000 N   0  0  0  0  0  0  0  0  0  0  0  0
    3.2789    2.0625    0.0000 C   0  0  0  0  0  0  0  0  0  0  0  0
    3.2789    1.2375    0.0000 C   0  0  0  0  0  0  0  0  0  0  0  0
    3.9934    0.8250    0.0000 N   0  0  0  0  0  0  0  0  0  0  0  0
    3.9934    0.0000    0.0000 C   0  0  0  0  0  0  0  0  0  0  0  0
    4.7079   -0.4125    0.0000 N   0  0  0  0  0  0  0  0  0  0  0  0
    3.2789   -0.4125    0.0000 N   0  0  0  0  0  0  0  0  0  0  0  0
    2.5645    0.0000    0.0000 C   0  0  0  0  0  0  0  0  0  0  0  0
    2.5645    0.8250    0.0000 C   0  0  0  0  0  0  0  0  0  0  0  0
    1.7798    1.0799    0.0000 C   0  0  0  0  0  0  0  0  0  0  0  0
    1.2949    0.4125    0.0000 N   0  0  0  0  0  0  0  0  0  0  0  0
    0.4699    0.4125    0.0000 C   0  0  0  0  0  0  0  0  0  0  0  0
    0.0574    1.1270    0.0000 O   0  0  0  0  0  0  0  0  0  0  0  0
    0.0574   -0.3020    0.0000 N   0  0  0  0  0  0  0  0  0  0  0  0
   -0.7676   -0.3020    0.0000 C   0  0  0  0  0  0  0  0  0  0  0  0
   -1.1801   -1.0164    0.0000 C   0  0  0  0  0  0  0  0  0  0  0  0
   -1.5926   -1.7309    0.0000 C   0  0  0  0  0  0  0  0  0  0  0  0
   -1.8946   -0.6039    0.0000 F   0  0  0  0  0  0  0  0  0  0  0  0
   -0.4656   -1.4289    0.0000 F   0  0  0  0  0  0  0  0  0  0  0  0
    1.7798   -0.2549    0.0000 C   0  0  0  0  0  0  0  0  0  0  0  0
  1  2  1  0  0  0  0
  2  3  4  0  0  0  0
  3  4  4  0  0  0  0
  4  5  1  0  0  0  0
  4  6  4  0  0  0  0
  6  7  4  0  0  0  0
  7  8  1  0  0  0  0
  8  9  1  0  0  0  0
  9 10  1  0  0  0  0
 10 11  1  0  0  0  0
 11 12  4  0  0  0  0
 12 13  4  0  0  0  0
 13 14  1  0  0  0  0
 13 15  4  0  0  0  0
 15 16  4  0  0  0  0
 11 16  4  0  0  0  0
  7 17  4  0  0  0  0
  2 17  4  0  0  0  0
 17 18  1  0  0  0  0
 18 19  4  0  0  0  0
 19 20  4  0  0  0  0
 20 21  1  0  0  0  0
 20 22  4  0  0  0  0
 22 23  4  0  0  0  0
 23 24  4  0  0  0  0
 18 24  4  0  0  0  0
 24 25  1  0  0  0  0
 25 26  1  0  0  0  0
 26 27  1  0  0  0  0
 27 28  2  0  0  0  0
 27 29  1  0  0  0  0
 29 30  1  0  0  0  0
 30 31  1  0  0  0  0
 31 32  1  0  0  0  0
 31 33  1  0  0  0  0
 31 34  1  0  0  0  0
 26 35  1  0  0  0  0
 23 35  1  0  0  0  0
M  END
>  <CdId>
253

>  <Mol Weight>
509.92

>  <Formula>
C22H23ClF3N7O2

>  <Molecule ChEMBL ID>
CHEMBL1774933

>  <Molecule Max Phase>
None

>  <Molecular Weight>
509.92

>  <#RO5 Violations>
1

>  <AlogP>
3.78

>  <Compound Key>
42

>  <Standard Type>
IC50

>  <Standard Relation>
'>'

>  <Standard Value>
30000.0

>  <Standard Units>
nM

$$$$

  Mrv2114 03112311372D          

 17 19  0  0  0  0            999 V2000
    1.4289    0.8250    0.0000 C   0  0  0  0  0  0  0  0  0  0  0  0
    1.4289   -0.0000    0.0000 C   0  0  0  0  0  0  0  0  0  0  0  0
    0.7145   -0.4125    0.0000 C   0  0  0  0  0  0  0  0  0  0  0  0
    0.7145   -1.2375    0.0000 C   0  0  0  0  0  0  0  0  0  0  0  0
    1.3819   -1.7224    0.0000 N   0  0  0  0  0  0  0  0  0  0  0  0
    1.1270   -2.5070    0.0000 N   0  0  0  0  0  0  0  0  0  0  0  0
    0.3020   -2.5070    0.0000 C   0  0  0  0  0  0  0  0  0  0  0  0
   -0.1830   -3.1745    0.0000 C   0  0  0  0  0  0  0  0  0  0  0  0
    0.1526   -3.9282    0.0000 C   0  0  0  0  0  0  0  0  0  0  0  0
   -0.3323   -4.5956    0.0000 C   0  0  0  0  0  0  0  0  0  0  0  0
   -1.1528   -4.5094    0.0000 C   0  0  0  0  0  0  0  0  0  0  0  0
   -1.4884   -3.7557    0.0000 C   0  0  0  0  0  0  0  0  0  0  0  0
   -1.0034   -3.0882    0.0000 C   0  0  0  0  0  0  0  0  0  0  0  0
    0.0470   -1.7224    0.0000 O   0  0  0  0  0  0  0  0  0  0  0  0
    0.0000   -0.0000    0.0000 C   0  0  0  0  0  0  0  0  0  0  0  0
    0.0000    0.8250    0.0000 C   0  0  0  0  0  0  0  0  0  0  0  0
    0.7145    1.2375    0.0000 N   0  0  0  0  0  0  0  0  0  0  0  0
  1  2  4  0  0  0  0
  2  3  4  0  0  0  0
  3  4  1  0  0  0  0
  4  5  4  0  0  0  0
  5  6  4  0  0  0  0
  6  7  4  0  0  0  0
  7  8  1  0  0  0  0
  8  9  1  0  0  0  0
  9 10  1  0  0  0  0
 10 11  1  0  0  0  0
 11 12  1  0  0  0  0
 12 13  1  0  0  0  0
  8 13  1  0  0  0  0
  7 14  4  0  0  0  0
  4 14  4  0  0  0  0
  3 15  4  0  0  0  0
 15 16  4  0  0  0  0
 16 17  4  0  0  0  0
  1 17  4  0  0  0  0
M  END
>  <CdId>
254

>  <Mol Weight>
229.283

>  <Formula>
C13H15N3O

>  <Molecule ChEMBL ID>
CHEMBL2069804

>  <Molecule Max Phase>
None

>  <Molecular Weight>
229.28

>  <#RO5 Violations>
0

>  <AlogP>
3.18

>  <Compound Key>
24

>  <Standard Type>
IC50

>  <Standard Relation>
'>'

>  <Standard Value>
20000.0

>  <Standard Units>
nM

$$$$

  Mrv2114 03112311372D          

 30 33  0  0  1  0            999 V2000
    7.8592    1.2375    0.0000 O   0  0  0  0  0  0  0  0  0  0  0  0
    7.1447    0.8250    0.0000 C   0  0  0  0  0  0  0  0  0  0  0  0
    6.4302    1.2375    0.0000 O   0  0  0  0  0  0  0  0  0  0  0  0
    7.1447    0.0000    0.0000 C   0  0  0  0  0  0  0  0  0  0  0  0
    6.4302   -0.4125    0.0000 C   0  0  0  0  0  0  0  0  0  0  0  0
    6.4302   -1.2375    0.0000 C   0  0  0  0  0  0  0  0  0  0  0  0
    5.7158   -1.6500    0.0000 C   0  0  0  0  0  0  0  0  0  0  0  0
    5.0013   -1.2375    0.0000 C   0  0  0  0  0  0  0  0  0  0  0  0
    4.2868   -1.6500    0.0000 O   0  0  0  0  0  0  0  0  0  0  0  0
    3.5724   -1.2375    0.0000 C   0  0  0  0  0  0  0  0  0  0  0  0
    2.8579   -1.6500    0.0000 C   0  0  0  0  0  0  0  0  0  0  0  0
    2.1434   -1.2375    0.0000 C   0  0  0  0  0  0  0  0  0  0  0  0
    2.1434   -0.4125    0.0000 N   0  0  0  0  0  0  0  0  0  0  0  0
    1.4289   -0.0000    0.0000 C   0  0  0  0  0  0  0  0  0  0  0  0
    1.4289    0.8250    0.0000 O   0  0  0  0  0  0  0  0  0  0  0  0
    0.7145   -0.4125    0.0000 N   0  0  0  0  0  0  0  0  0  0  0  0
    0.7145   -1.2375    0.0000 C   0  0  1  0  0  0  0  0  0  0  0  0
    1.1270   -1.9520    0.0000 C   0  0  0  0  0  0  0  0  0  0  0  0
    0.3020   -1.9520    0.0000 C   0  0  2  0  0  0  0  0  0  0  0  0
   -0.4125   -2.3645    0.0000 C   0  0  0  0  0  0  0  0  0  0  0  0
   -0.4125   -3.1895    0.0000 C   0  0  0  0  0  0  0  0  0  0  0  0
   -1.1270   -3.6020    0.0000 C   0  0  0  0  0  0  0  0  0  0  0  0
   -1.8414   -3.1895    0.0000 C   0  0  0  0  0  0  0  0  0  0  0  0
   -1.8414   -2.3645    0.0000 C   0  0  0  0  0  0  0  0  0  0  0  0
   -1.1270   -1.9520    0.0000 C   0  0  0  0  0  0  0  0  0  0  0  0
    2.8579   -0.0000    0.0000 C   0  0  0  0  0  0  0  0  0  0  0  0
    3.5724   -0.4125    0.0000 C   0  0  0  0  0  0  0  0  0  0  0  0
    5.0013   -0.4125    0.0000 C   0  0  0  0  0  0  0  0  0  0  0  0
    4.2868   -0.0000    0.0000 Cl  0  0  0  0  0  0  0  0  0  0  0  0
    5.7158    0.0000    0.0000 C   0  0  0  0  0  0  0  0  0  0  0  0
  1  2  2  0  0  0  0
  2  3  1  0  0  0  0
  2  4  1  0  0  0  0
  4  5  1  0  0  0  0
  5  6  4  0  0  0  0
  6  7  4  0  0  0  0
  7  8  4  0  0  0  0
  8  9  1  0  0  0  0
  9 10  1  0  0  0  0
 10 11  1  0  0  0  0
 11 12  1  0  0  0  0
 12 13  1  0  0  0  0
 13 14  1  0  0  0  0
 14 15  2  0  0  0  0
 14 16  1  0  0  0  0
 17 16  1  1  0  0  0
 17 18  1  0  0  0  0
 19 18  1  0  0  0  0
 17 19  1  0  0  0  0
 19 20  1  6  0  0  0
 20 21  4  0  0  0  0
 21 22  4  0  0  0  0
 22 23  4  0  0  0  0
 23 24  4  0  0  0  0
 24 25  4  0  0  0  0
 20 25  4  0  0  0  0
 13 26  1  0  0  0  0
 26 27  1  0  0  0  0
 10 27  1  0  0  0  0
  8 28  4  0  0  0  0
 28 29  1  0  0  0  0
 28 30  4  0  0  0  0
  5 30  4  0  0  0  0
M  END
>  <CdId>
255

>  <Mol Weight>
428.91

>  <Formula>
C23H25ClN2O4

>  <Molecule ChEMBL ID>
CHEMBL3114610

>  <Molecule Max Phase>
None

>  <Molecular Weight>
428.92

>  <#RO5 Violations>
0

>  <AlogP>
4.08

>  <Compound Key>
38

>  <Standard Type>
IC50

>  <Standard Relation>
'>'

>  <Standard Value>
50000.0

>  <Standard Units>
nM

$$$$

  Mrv2114 03112311372D          

 32 35  0  0  0  0            999 V2000
    2.7512   -1.7116    0.0000 C   0  0  0  0  0  0  0  0  0  0  0  0
    2.7512   -2.5366    0.0000 C   0  0  0  0  0  0  0  0  0  0  0  0
    3.4656   -2.9491    0.0000 C   0  0  0  0  0  0  0  0  0  0  0  0
    3.4656   -3.7741    0.0000 C   0  0  0  0  0  0  0  0  0  0  0  0
    2.7512   -4.1866    0.0000 C   0  0  0  0  0  0  0  0  0  0  0  0
    2.7512   -5.0116    0.0000 N   0  0  0  0  0  0  0  0  0  0  0  0
    2.0837   -5.4965    0.0000 N   0  0  0  0  0  0  0  0  0  0  0  0
    2.3387   -6.2812    0.0000 C   0  0  0  0  0  0  0  0  0  0  0  0
    1.8538   -6.9486    0.0000 C   0  0  0  0  0  0  0  0  0  0  0  0
    1.3688   -7.6160    0.0000 C   0  0  0  0  0  0  0  0  0  0  0  0
    1.1863   -6.4637    0.0000 C   0  0  0  0  0  0  0  0  0  0  0  0
    2.5212   -7.4335    0.0000 C   0  0  0  0  0  0  0  0  0  0  0  0
    3.1637   -6.2812    0.0000 C   0  0  0  0  0  0  0  0  0  0  0  0
    3.4186   -5.4965    0.0000 C   0  0  0  0  0  0  0  0  0  0  0  0
    4.2032   -5.2416    0.0000 N   0  0  0  0  0  0  0  0  0  0  0  0
    4.8163   -5.7936    0.0000 C   0  0  0  0  0  0  0  0  0  0  0  0
    4.6448   -6.6006    0.0000 O   0  0  0  0  0  0  0  0  0  0  0  0
    5.6010   -5.5387    0.0000 N   0  0  0  0  0  0  0  0  0  0  0  0
    6.2140   -6.0907    0.0000 C   0  0  0  0  0  0  0  0  0  0  0  0
    6.9987   -5.8358    0.0000 C   0  0  0  0  0  0  0  0  0  0  0  0
    7.6118   -6.3878    0.0000 C   0  0  0  0  0  0  0  0  0  0  0  0
    7.4402   -7.1948    0.0000 C   0  0  0  0  0  0  0  0  0  0  0  0
    8.0533   -7.7468    0.0000 C   0  0  0  0  0  0  0  0  0  0  0  0
    8.8380   -7.4919    0.0000 C   0  0  0  0  0  0  0  0  0  0  0  0
    9.4510   -8.0439    0.0000 C   0  0  0  0  0  0  0  0  0  0  0  0
    9.2795   -8.8509    0.0000 C   0  0  0  0  0  0  0  0  0  0  0  0
    8.4949   -9.1058    0.0000 N   0  0  0  0  0  0  0  0  0  0  0  0
    7.8818   -8.5538    0.0000 C   0  0  0  0  0  0  0  0  0  0  0  0
    6.6556   -7.4497    0.0000 C   0  0  0  0  0  0  0  0  0  0  0  0
    6.0425   -6.8977    0.0000 C   0  0  0  0  0  0  0  0  0  0  0  0
    2.0367   -3.7741    0.0000 C   0  0  0  0  0  0  0  0  0  0  0  0
    2.0367   -2.9491    0.0000 C   0  0  0  0  0  0  0  0  0  0  0  0
  1  2  1  0  0  0  0
  2  3  4  0  0  0  0
  3  4  4  0  0  0  0
  4  5  4  0  0  0  0
  5  6  1  0  0  0  0
  6  7  4  0  0  0  0
  7  8  4  0  0  0  0
  8  9  1  0  0  0  0
  9 10  1  0  0  0  0
  9 11  1  0  0  0  0
  9 12  1  0  0  0  0
  8 13  4  0  0  0  0
 13 14  4  0  0  0  0
  6 14  4  0  0  0  0
 14 15  1  0  0  0  0
 15 16  1  0  0  0  0
 16 17  2  0  0  0  0
 16 18  1  0  0  0  0
 18 19  1  0  0  0  0
 19 20  4  0  0  0  0
 20 21  4  0  0  0  0
 21 22  4  0  0  0  0
 22 23  1  0  0  0  0
 23 24  4  0  0  0  0
 24 25  4  0  0  0  0
 25 26  4  0  0  0  0
 26 27  4  0  0  0  0
 27 28  4  0  0  0  0
 23 28  4  0  0  0  0
 22 29  4  0  0  0  0
 29 30  4  0  0  0  0
 19 30  4  0  0  0  0
  5 31  4  0  0  0  0
 31 32  4  0  0  0  0
  2 32  4  0  0  0  0
M  END
>  <CdId>
256

>  <Mol Weight>
425.536

>  <Formula>
C26H27N5O

>  <Molecule ChEMBL ID>
CHEMBL2425156

>  <Molecule Max Phase>
None

>  <Molecular Weight>
425.54

>  <#RO5 Violations>
1

>  <AlogP>
6.18

>  <Compound Key>
27

>  <Standard Type>
IC50

>  <Standard Relation>
'>'

>  <Standard Value>
10000.0

>  <Standard Units>
nM

$$$$

  Mrv2114 03112311372D          

 23 26  0  0  0  0            999 V2000
    4.7812    4.4104    0.0000 C   0  0  0  0  0  0  0  0  0  0  0  0
    4.7812    3.5854    0.0000 C   0  0  0  0  0  0  0  0  0  0  0  0
    5.4957    3.1729    0.0000 C   0  0  0  0  0  0  0  0  0  0  0  0
    5.4957    2.3479    0.0000 C   0  0  0  0  0  0  0  0  0  0  0  0
    4.7812    1.9354    0.0000 C   0  0  0  0  0  0  0  0  0  0  0  0
    4.0668    2.3479    0.0000 C   0  0  0  0  0  0  0  0  0  0  0  0
    3.3523    1.9354    0.0000 C   0  0  0  0  0  0  0  0  0  0  0  0
    3.3523    1.1104    0.0000 C   0  0  0  0  0  0  0  0  0  0  0  0
    2.6378    0.6979    0.0000 C   0  0  0  0  0  0  0  0  0  0  0  0
    2.6378   -0.1271    0.0000 N   0  0  0  0  0  0  0  0  0  0  0  0
    1.9233   -0.5396    0.0000 C   0  0  0  0  0  0  0  0  0  0  0  0
    1.9233   -1.3646    0.0000 C   0  0  0  0  0  0  0  0  0  0  0  0
    1.2089   -1.7771    0.0000 C   0  0  0  0  0  0  0  0  0  0  0  0
    0.4944   -1.3646    0.0000 N   0  0  0  0  0  0  0  0  0  0  0  0
    0.4944   -0.5396    0.0000 C   0  0  0  0  0  0  0  0  0  0  0  0
    1.2089   -0.1271    0.0000 C   0  0  0  0  0  0  0  0  0  0  0  0
    1.9233    1.1104    0.0000 C   0  0  0  0  0  0  0  0  0  0  0  0
    1.1387    0.8555    0.0000 C   0  0  0  0  0  0  0  0  0  0  0  0
    0.6538    1.5229    0.0000 C   0  0  0  0  0  0  0  0  0  0  0  0
    1.1387    2.1904    0.0000 N   0  0  0  0  0  0  0  0  0  0  0  0
    1.9233    1.9354    0.0000 C   0  0  0  0  0  0  0  0  0  0  0  0
    2.6378    2.3479    0.0000 N   0  0  0  0  0  0  0  0  0  0  0  0
    4.0668    3.1729    0.0000 N   0  0  0  0  0  0  0  0  0  0  0  0
  1  2  1  0  0  0  0
  2  3  4  0  0  0  0
  3  4  4  0  0  0  0
  4  5  4  0  0  0  0
  5  6  4  0  0  0  0
  6  7  1  0  0  0  0
  7  8  4  0  0  0  0
  8  9  4  0  0  0  0
  9 10  1  0  0  0  0
 10 11  1  0  0  0  0
 11 12  4  0  0  0  0
 12 13  4  0  0  0  0
 13 14  4  0  0  0  0
 14 15  4  0  0  0  0
 15 16  4  0  0  0  0
 11 16  4  0  0  0  0
  9 17  4  0  0  0  0
 17 18  4  0  0  0  0
 18 19  4  0  0  0  0
 19 20  4  0  0  0  0
 20 21  4  0  0  0  0
 17 21  4  0  0  0  0
 21 22  4  0  0  0  0
  7 22  4  0  0  0  0
  6 23  4  0  0  0  0
  2 23  4  0  0  0  0
M  STY  1   1 DAT
M  SAL   1  1  20
M  SDT   1 MRV_IMPLICIT_H                                        
M  SDD   1     0.0000    0.0000    DR    ALL  0       0  
M  SED   1 IMPL_H1
M  END
>  <CdId>
257

>  <Mol Weight>
301.353

>  <Formula>
C18H15N5

>  <Molecule ChEMBL ID>
CHEMBL4572312

>  <Molecule Max Phase>
None

>  <Molecular Weight>
301.35

>  <#RO5 Violations>
0

>  <AlogP>
4.07

>  <Compound Key>
4

>  <Standard Type>
IC50

>  <Standard Relation>
'='

>  <Standard Value>
3981.07

>  <Standard Units>
nM

$$$$

  Mrv2114 03112311372D          

 31 34  0  0  0  0            999 V2000
    2.7512    0.7634    0.0000 C   0  0  0  0  0  0  0  0  0  0  0  0
    2.7512   -0.0616    0.0000 C   0  0  0  0  0  0  0  0  0  0  0  0
    3.4656   -0.4741    0.0000 C   0  0  0  0  0  0  0  0  0  0  0  0
    3.4656   -1.2991    0.0000 C   0  0  0  0  0  0  0  0  0  0  0  0
    2.7512   -1.7116    0.0000 C   0  0  0  0  0  0  0  0  0  0  0  0
    2.7512   -2.5366    0.0000 N   0  0  0  0  0  0  0  0  0  0  0  0
    2.0837   -3.0215    0.0000 N   0  0  0  0  0  0  0  0  0  0  0  0
    2.3387   -3.8062    0.0000 C   0  0  0  0  0  0  0  0  0  0  0  0
    1.8538   -4.4736    0.0000 C   0  0  0  0  0  0  0  0  0  0  0  0
    1.3688   -5.1410    0.0000 C   0  0  0  0  0  0  0  0  0  0  0  0
    1.1863   -3.9887    0.0000 C   0  0  0  0  0  0  0  0  0  0  0  0
    2.5212   -4.9585    0.0000 C   0  0  0  0  0  0  0  0  0  0  0  0
    3.1637   -3.8062    0.0000 C   0  0  0  0  0  0  0  0  0  0  0  0
    3.4186   -3.0215    0.0000 C   0  0  0  0  0  0  0  0  0  0  0  0
    4.2032   -2.7666    0.0000 N   0  0  0  0  0  0  0  0  0  0  0  0
    4.8163   -3.3186    0.0000 C   0  0  0  0  0  0  0  0  0  0  0  0
    4.6448   -4.1256    0.0000 O   0  0  0  0  0  0  0  0  0  0  0  0
    5.6010   -3.0637    0.0000 N   0  0  0  0  0  0  0  0  0  0  0  0
    6.2140   -3.6157    0.0000 C   0  0  0  0  0  0  0  0  0  0  0  0
    6.9987   -3.3608    0.0000 C   0  0  0  0  0  0  0  0  0  0  0  0
    7.6118   -3.9128    0.0000 C   0  0  0  0  0  0  0  0  0  0  0  0
    7.4402   -4.7198    0.0000 C   0  0  0  0  0  0  0  0  0  0  0  0
    8.0533   -5.2718    0.0000 N   0  0  0  0  0  0  0  0  0  0  0  0
    8.8603   -5.1003    0.0000 C   0  0  0  0  0  0  0  0  0  0  0  0
    9.2728   -5.8148    0.0000 N   0  0  0  0  0  0  0  0  0  0  0  0
    8.7208   -6.4279    0.0000 N   0  0  0  0  0  0  0  0  0  0  0  0
    7.9671   -6.0923    0.0000 C   0  0  0  0  0  0  0  0  0  0  0  0
    6.6556   -4.9747    0.0000 C   0  0  0  0  0  0  0  0  0  0  0  0
    6.0425   -4.4227    0.0000 C   0  0  0  0  0  0  0  0  0  0  0  0
    2.0367   -1.2991    0.0000 C   0  0  0  0  0  0  0  0  0  0  0  0
    2.0367   -0.4741    0.0000 C   0  0  0  0  0  0  0  0  0  0  0  0
  1  2  1  0  0  0  0
  2  3  4  0  0  0  0
  3  4  4  0  0  0  0
  4  5  4  0  0  0  0
  5  6  1  0  0  0  0
  6  7  4  0  0  0  0
  7  8  4  0  0  0  0
  8  9  1  0  0  0  0
  9 10  1  0  0  0  0
  9 11  1  0  0  0  0
  9 12  1  0  0  0  0
  8 13  4  0  0  0  0
 13 14  4  0  0  0  0
  6 14  4  0  0  0  0
 14 15  1  0  0  0  0
 15 16  1  0  0  0  0
 16 17  2  0  0  0  0
 16 18  1  0  0  0  0
 18 19  1  0  0  0  0
 19 20  4  0  0  0  0
 20 21  4  0  0  0  0
 21 22  4  0  0  0  0
 22 23  1  0  0  0  0
 23 24  4  0  0  0  0
 24 25  4  0  0  0  0
 25 26  4  0  0  0  0
 26 27  4  0  0  0  0
 23 27  4  0  0  0  0
 22 28  4  0  0  0  0
 28 29  4  0  0  0  0
 19 29  4  0  0  0  0
  5 30  4  0  0  0  0
 30 31  4  0  0  0  0
  2 31  4  0  0  0  0
M  END
>  <CdId>
258

>  <Mol Weight>
415.501

>  <Formula>
C23H25N7O

>  <Molecule ChEMBL ID>
CHEMBL2425147

>  <Molecule Max Phase>
None

>  <Molecular Weight>
415.5

>  <#RO5 Violations>
0

>  <AlogP>
4.7

>  <Compound Key>
18

>  <Standard Type>
IC50

>  <Standard Relation>
'>'

>  <Standard Value>
10000.0

>  <Standard Units>
nM

$$$$

  Mrv2114 03112311372D          

 31 34  0  0  0  0            999 V2000
    2.7512    0.7634    0.0000 C   0  0  0  0  0  0  0  0  0  0  0  0
    2.7512   -0.0616    0.0000 C   0  0  0  0  0  0  0  0  0  0  0  0
    3.4656   -0.4741    0.0000 C   0  0  0  0  0  0  0  0  0  0  0  0
    3.4656   -1.2991    0.0000 C   0  0  0  0  0  0  0  0  0  0  0  0
    2.7512   -1.7116    0.0000 C   0  0  0  0  0  0  0  0  0  0  0  0
    2.7512   -2.5366    0.0000 N   0  0  0  0  0  0  0  0  0  0  0  0
    2.0837   -3.0215    0.0000 N   0  0  0  0  0  0  0  0  0  0  0  0
    2.3387   -3.8062    0.0000 C   0  0  0  0  0  0  0  0  0  0  0  0
    1.8538   -4.4736    0.0000 C   0  0  0  0  0  0  0  0  0  0  0  0
    1.3688   -5.1410    0.0000 C   0  0  0  0  0  0  0  0  0  0  0  0
    1.1863   -3.9887    0.0000 C   0  0  0  0  0  0  0  0  0  0  0  0
    2.5212   -4.9585    0.0000 C   0  0  0  0  0  0  0  0  0  0  0  0
    3.1637   -3.8062    0.0000 C   0  0  0  0  0  0  0  0  0  0  0  0
    3.4186   -3.0215    0.0000 C   0  0  0  0  0  0  0  0  0  0  0  0
    4.2032   -2.7666    0.0000 N   0  0  0  0  0  0  0  0  0  0  0  0
    4.8163   -3.3186    0.0000 C   0  0  0  0  0  0  0  0  0  0  0  0
    4.6448   -4.1256    0.0000 O   0  0  0  0  0  0  0  0  0  0  0  0
    5.6010   -3.0637    0.0000 N   0  0  0  0  0  0  0  0  0  0  0  0
    6.2140   -3.6157    0.0000 C   0  0  0  0  0  0  0  0  0  0  0  0
    6.9987   -3.3608    0.0000 C   0  0  0  0  0  0  0  0  0  0  0  0
    7.6118   -3.9128    0.0000 C   0  0  0  0  0  0  0  0  0  0  0  0
    7.4402   -4.7198    0.0000 C   0  0  0  0  0  0  0  0  0  0  0  0
    8.0533   -5.2718    0.0000 N   0  0  0  0  0  0  0  0  0  0  0  0
    8.8603   -5.1003    0.0000 C   0  0  0  0  0  0  0  0  0  0  0  0
    9.2728   -5.8148    0.0000 N   0  0  0  0  0  0  0  0  0  0  0  0
    8.7208   -6.4279    0.0000 N   0  0  0  0  0  0  0  0  0  0  0  0
    7.9671   -6.0923    0.0000 N   0  0  0  0  0  0  0  0  0  0  0  0
    6.6556   -4.9747    0.0000 C   0  0  0  0  0  0  0  0  0  0  0  0
    6.0425   -4.4227    0.0000 C   0  0  0  0  0  0  0  0  0  0  0  0
    2.0367   -1.2991    0.0000 C   0  0  0  0  0  0  0  0  0  0  0  0
    2.0367   -0.4741    0.0000 C   0  0  0  0  0  0  0  0  0  0  0  0
  1  2  1  0  0  0  0
  2  3  4  0  0  0  0
  3  4  4  0  0  0  0
  4  5  4  0  0  0  0
  5  6  1  0  0  0  0
  6  7  4  0  0  0  0
  7  8  4  0  0  0  0
  8  9  1  0  0  0  0
  9 10  1  0  0  0  0
  9 11  1  0  0  0  0
  9 12  1  0  0  0  0
  8 13  4  0  0  0  0
 13 14  4  0  0  0  0
  6 14  4  0  0  0  0
 14 15  1  0  0  0  0
 15 16  1  0  0  0  0
 16 17  2  0  0  0  0
 16 18  1  0  0  0  0
 18 19  1  0  0  0  0
 19 20  4  0  0  0  0
 20 21  4  0  0  0  0
 21 22  4  0  0  0  0
 22 23  1  0  0  0  0
 23 24  4  0  0  0  0
 24 25  4  0  0  0  0
 25 26  4  0  0  0  0
 26 27  4  0  0  0  0
 23 27  4  0  0  0  0
 22 28  4  0  0  0  0
 28 29  4  0  0  0  0
 19 29  4  0  0  0  0
  5 30  4  0  0  0  0
 30 31  4  0  0  0  0
  2 31  4  0  0  0  0
M  END
>  <CdId>
259

>  <Mol Weight>
416.489

>  <Formula>
C22H24N8O

>  <Molecule ChEMBL ID>
CHEMBL2425154

>  <Molecule Max Phase>
None

>  <Molecular Weight>
416.49

>  <#RO5 Violations>
0

>  <AlogP>
4.1

>  <Compound Key>
25

>  <Standard Type>
IC50

>  <Standard Relation>
'>'

>  <Standard Value>
10000.0

>  <Standard Units>
nM

$$$$

  Mrv2114 03112311372D          

 13 11  0  0  0  0            999 V2000
   -0.0650    2.5125    0.0000 C   0  0  0  0  0  0  0  0  0  0  0  0
   -0.0650    1.6875    0.0000 C   0  0  0  0  0  0  0  0  0  0  0  0
    0.6495    1.2750    0.0000 C   0  0  0  0  0  0  0  0  0  0  0  0
    0.6495    0.4500    0.0000 C   0  0  0  0  0  0  0  0  0  0  0  0
   -0.0650    0.0375    0.0000 C   0  0  0  0  0  0  0  0  0  0  0  0
   -0.0650   -0.7875    0.0000 C   0  0  0  0  0  0  0  0  0  0  0  0
   -0.0650   -1.6125    0.0000 C   0  0  0  0  0  0  0  0  0  0  0  0
   -0.0650   -2.4375    0.0000 C   0  0  0  0  0  0  0  0  0  0  0  0
    0.6495   -2.8500    0.0000 N   0  0  0  0  0  0  0  0  0  0  0  0
   -0.7794    0.4500    0.0000 C   0  0  0  0  0  0  0  0  0  0  0  0
   -0.7794    1.2750    0.0000 N   0  0  0  0  0  0  0  0  0  0  0  0
    2.6531    0.0000    0.0000 Cl  0  0  0  0  0  0  0  0  0  0  0  0
    0.0000   -4.5000    0.0000 Cl  0  0  0  0  0  0  0  0  0  0  0  0
  1  2  1  0  0  0  0
  2  3  4  0  0  0  0
  3  4  4  0  0  0  0
  4  5  4  0  0  0  0
  5  6  1  0  0  0  0
  6  7  3  0  0  0  0
  7  8  1  0  0  0  0
  8  9  1  0  0  0  0
  5 10  4  0  0  0  0
 10 11  4  0  0  0  0
  2 11  4  0  0  0  0
M  END
>  <CdId>
260

>  <Mol Weight>
219.11

>  <Formula>
C9H12Cl2N2

>  <Molecule ChEMBL ID>
CHEMBL4164781

>  <Molecule Max Phase>
None

>  <Molecular Weight>
219.12

>  <#RO5 Violations>
0

>  <AlogP>
0.7

>  <Compound Key>
4e

>  <Standard Type>
IC50

>  <Standard Relation>
'>'

>  <Standard Value>
50000.0

>  <Standard Units>
nM

$$$$

  Mrv2114 03112311372D          

 25 24  0  0  0  0            999 V2000
   -3.6237    2.8579    0.0000 C   0  0  0  0  0  0  0  0  0  0  0  0
   -2.9092    3.2704    0.0000 N   0  0  0  0  0  0  0  0  0  0  0  0
   -2.1947    2.8579    0.0000 C   0  0  0  0  0  0  0  0  0  0  0  0
   -2.1947    2.0329    0.0000 O   0  0  0  0  0  0  0  0  0  0  0  0
   -1.4802    3.2704    0.0000 C   0  0  0  0  0  0  0  0  0  0  0  0
   -1.4802    4.0954    0.0000 O   0  0  0  0  0  0  0  0  0  0  0  0
   -0.7658    2.8579    0.0000 N   0  0  0  0  0  0  0  0  0  0  0  0
   -0.0513    3.2704    0.0000 C   0  0  0  0  0  0  0  0  0  0  0  0
    0.6632    2.8579    0.0000 C   0  0  0  0  0  0  0  0  0  0  0  0
    1.3776    3.2704    0.0000 C   0  0  0  0  0  0  0  0  0  0  0  0
    2.0921    2.8579    0.0000 C   0  0  0  0  0  0  0  0  0  0  0  0
    2.8066    3.2704    0.0000 C   0  0  0  0  0  0  0  0  0  0  0  0
    3.5211    2.8579    0.0000 C   0  0  0  0  0  0  0  0  0  0  0  0
    4.2355    3.2704    0.0000 C   0  0  0  0  0  0  0  0  0  0  0  0
    4.9500    2.8579    0.0000 C   0  0  0  0  0  0  0  0  0  0  0  0
    5.6645    3.2704    0.0000 C   0  0  0  0  0  0  0  0  0  0  0  0
    6.3789    2.8579    0.0000 C   0  0  0  0  0  0  0  0  0  0  0  0
    7.0934    3.2704    0.0000 C   0  0  0  0  0  0  0  0  0  0  0  0
    7.8079    2.8579    0.0000 C   0  0  0  0  0  0  0  0  0  0  0  0
    8.5224    3.2704    0.0000 C   0  0  0  0  0  0  0  0  0  0  0  0
    9.2368    2.8579    0.0000 C   0  0  0  0  0  0  0  0  0  0  0  0
    9.9513    3.2704    0.0000 C   0  0  0  0  0  0  0  0  0  0  0  0
   10.6658    2.8579    0.0000 C   0  0  0  0  0  0  0  0  0  0  0  0
   11.3802    3.2704    0.0000 O   0  0  0  0  0  0  0  0  0  0  0  0
   10.6658    2.0329    0.0000 O   0  0  0  0  0  0  0  0  0  0  0  0
  1  2  1  0  0  0  0
  2  3  1  0  0  0  0
  3  4  2  0  0  0  0
  3  5  1  0  0  0  0
  5  6  2  0  0  0  0
  5  7  1  0  0  0  0
  7  8  1  0  0  0  0
  8  9  1  0  0  0  0
  9 10  1  0  0  0  0
 10 11  1  0  0  0  0
 12 11  1  4  0  0  0
 12 13  2  0  0  0  0
 13 14  1  0  0  0  0
 14 15  1  0  0  0  0
 15 16  1  0  0  0  0
 16 17  1  0  0  0  0
 17 18  1  0  0  0  0
 18 19  1  0  0  0  0
 19 20  1  0  0  0  0
 20 21  1  0  0  0  0
 21 22  1  0  0  0  0
 22 23  1  0  0  0  0
 23 24  2  0  0  0  0
 23 25  1  0  0  0  0
M  END
>  <CdId>
261

>  <Mol Weight>
354.491

>  <Formula>
C19H34N2O4

>  <Molecule ChEMBL ID>
CHEMBL1802692

>  <Molecule Max Phase>
None

>  <Molecular Weight>
354.49

>  <#RO5 Violations>
0

>  <AlogP>
3.17

>  <Compound Key>
2b

>  <Standard Type>
IC50

>  <Standard Relation>
'>'

>  <Standard Value>
50000.0

>  <Standard Units>
nM

$$$$

  Mrv2114 03112311372D          

 30 33  0  0  1  0            999 V2000
    2.7845    0.6979    0.0000 C   0  0  0  0  0  0  0  0  0  0  0  0
    2.0701    1.1104    0.0000 C   0  0  1  0  0  0  0  0  0  0  0  0
    1.3556    0.6979    0.0000 C   0  0  0  0  0  0  0  0  0  0  0  0
    0.6411    1.1104    0.0000 C   0  0  0  0  0  0  0  0  0  0  0  0
    0.6411    1.9354    0.0000 C   0  0  0  0  0  0  0  0  0  0  0  0
   -0.1435    2.1904    0.0000 N   0  0  0  0  0  0  0  0  0  0  0  0
   -0.6284    1.5229    0.0000 N   0  0  0  0  0  0  0  0  0  0  0  0
   -0.1435    0.8555    0.0000 N   0  0  0  0  0  0  0  0  0  0  0  0
   -0.3984    0.0709    0.0000 C   0  0  0  0  0  0  0  0  0  0  0  0
    0.1536   -0.5422    0.0000 N   0  0  0  0  0  0  0  0  0  0  0  0
   -0.1014   -1.3268    0.0000 C   0  0  0  0  0  0  0  0  0  0  0  0
   -0.9083   -1.4984    0.0000 C   0  0  0  0  0  0  0  0  0  0  0  0
   -1.1633   -2.2830    0.0000 O   0  0  0  0  0  0  0  0  0  0  0  0
   -1.4604   -0.8853    0.0000 C   0  0  0  0  0  0  0  0  0  0  0  0
   -1.2054   -0.1006    0.0000 N   0  0  0  0  0  0  0  0  0  0  0  0
    1.3556    2.3479    0.0000 C   0  0  0  0  0  0  0  0  0  0  0  0
    2.0701    1.9354    0.0000 N   0  0  0  0  0  0  0  0  0  0  0  0
    2.7845    2.3479    0.0000 C   0  0  0  0  0  0  0  0  0  0  0  0
    3.4990    1.9354    0.0000 O   0  0  0  0  0  0  0  0  0  0  0  0
    2.7845    3.1729    0.0000 C   0  0  0  0  0  0  0  0  0  0  0  0
    2.0701    3.5854    0.0000 C   0  0  0  0  0  0  0  0  0  0  0  0
    2.0701    4.4104    0.0000 C   0  0  0  0  0  0  0  0  0  0  0  0
    2.7845    4.8229    0.0000 N   0  0  0  0  0  0  0  0  0  0  0  0
    3.4990    4.4104    0.0000 C   0  0  0  0  0  0  0  0  0  0  0  0
    4.2135    4.8229    0.0000 C   0  0  0  0  0  0  0  0  0  0  0  0
    4.9279    5.2354    0.0000 F   0  0  0  0  0  0  0  0  0  0  0  0
    4.6260    4.1085    0.0000 F   0  0  0  0  0  0  0  0  0  0  0  0
    3.8010    5.5374    0.0000 F   0  0  0  0  0  0  0  0  0  0  0  0
    3.4990    3.5854    0.0000 C   0  0  0  0  0  0  0  0  0  0  0  0
    4.2135    3.1729    0.0000 F   0  0  0  0  0  0  0  0  0  0  0  0
  2  1  1  1  0  0  0
  2  3  1  0  0  0  0
  3  4  1  0  0  0  0
  4  5  4  0  0  0  0
  5  6  4  0  0  0  0
  6  7  4  0  0  0  0
  7  8  4  0  0  0  0
  4  8  4  0  0  0  0
  8  9  1  0  0  0  0
  9 10  4  0  0  0  0
 10 11  4  0  0  0  0
 11 12  4  0  0  0  0
 12 13  1  0  0  0  0
 12 14  4  0  0  0  0
 14 15  4  0  0  0  0
  9 15  4  0  0  0  0
  5 16  1  0  0  0  0
 16 17  1  0  0  0  0
  2 17  1  0  0  0  0
 17 18  1  0  0  0  0
 18 19  2  0  0  0  0
 18 20  1  0  0  0  0
 20 21  4  0  0  0  0
 21 22  4  0  0  0  0
 22 23  4  0  0  0  0
 23 24  4  0  0  0  0
 24 25  1  0  0  0  0
 25 26  1  0  0  0  0
 25 27  1  0  0  0  0
 25 28  1  0  0  0  0
 24 29  4  0  0  0  0
 20 29  4  0  0  0  0
 29 30  1  0  0  0  0
M  END
>  <CdId>
262

>  <Mol Weight>
423.332

>  <Formula>
C17H13F4N7O2

>  <Molecule ChEMBL ID>
CHEMBL4090696

>  <Molecule Max Phase>
None

>  <Molecular Weight>
423.33

>  <#RO5 Violations>
0

>  <AlogP>
1.9

>  <Compound Key>
40

>  <Standard Type>
IC50

$$$$

  Mrv2114 03112311372D          

 18 18  0  0  0  0            999 V2000
    0.7145    2.0625    0.0000 C   0  0  0  0  0  0  0  0  0  0  0  0
    0.7145    1.2375    0.0000 C   0  0  0  0  0  0  0  0  0  0  0  0
    1.4289    0.8250    0.0000 C   0  0  0  0  0  0  0  0  0  0  0  0
    1.4289   -0.0000    0.0000 C   0  0  0  0  0  0  0  0  0  0  0  0
    0.7145   -0.4125    0.0000 C   0  0  0  0  0  0  0  0  0  0  0  0
    0.7145   -1.2375    0.0000 C   0  0  0  0  0  0  0  0  0  0  0  0
    0.0000    0.0000    0.0000 C   0  0  0  0  0  0  0  0  0  0  0  0
   -0.7145   -0.4125    0.0000 O   0  0  0  0  0  0  0  0  0  0  0  0
   -0.7145   -1.2375    0.0000 C   0  0  0  0  0  0  0  0  0  0  0  0
   -1.4289   -1.6500    0.0000 C   0  0  0  0  0  0  0  0  0  0  0  0
   -1.4289   -2.4750    0.0000 C   0  0  0  0  0  0  0  0  0  0  0  0
   -2.1434   -2.8875    0.0000 C   0  0  0  0  0  0  0  0  0  0  0  0
   -2.5559   -2.1730    0.0000 C   0  0  0  0  0  0  0  0  0  0  0  0
   -1.7309   -3.6020    0.0000 C   0  0  0  0  0  0  0  0  0  0  0  0
   -2.8579   -3.3000    0.0000 C   0  0  0  0  0  0  0  0  0  0  0  0
   -2.8579   -4.1250    0.0000 O   0  0  0  0  0  0  0  0  0  0  0  0
   -3.5724   -2.8875    0.0000 O   0  0  0  0  0  0  0  0  0  0  0  0
    0.0000    0.8250    0.0000 C   0  0  0  0  0  0  0  0  0  0  0  0
  1  2  1  0  0  0  0
  2  3  4  0  0  0  0
  3  4  4  0  0  0  0
  4  5  4  0  0  0  0
  5  6  1  0  0  0  0
  5  7  4  0  0  0  0
  7  8  1  0  0  0  0
  8  9  1  0  0  0  0
  9 10  1  0  0  0  0
 10 11  1  0  0  0  0
 11 12  1  0  0  0  0
 12 13  1  0  0  0  0
 12 14  1  0  0  0  0
 12 15  1  0  0  0  0
 15 16  2  0  0  0  0
 15 17  1  0  0  0  0
  7 18  4  0  0  0  0
  2 18  4  0  0  0  0
M  END
>  <CdId>
263

>  <Mol Weight>
250.338

>  <Formula>
C15H22O3

>  <Molecule ChEMBL ID>
CHEMBL457

>  <Molecule Name>
GEMFIBROZIL

>  <Molecule Max Phase>
4

>  <Molecular Weight>
250.34

>  <#RO5 Violations>
0

>  <AlogP>
3.57

>  <Compound Key>
Gemfibrozil

>  <Standard Type>
IC50

>  <Standard Relation>
'='

>  <Standard Value>
95000.0

>  <Standard Units>
nM

$$$$

  Mrv2114 03112311372D          

 34 38  0  0  1  0            999 V2000
    0.0000   -2.4750    0.0000 O   0  0  0  0  0  0  0  0  0  0  0  0
    0.0000   -1.6500    0.0000 C   0  0  0  0  0  0  0  0  0  0  0  0
   -0.7145   -1.2375    0.0000 N   0  0  0  0  0  0  0  0  0  0  0  0
   -1.4289   -1.6500    0.0000 C   0  0  0  0  0  0  0  0  0  0  0  0
   -1.4289   -2.4750    0.0000 C   0  0  0  0  0  0  0  0  0  0  0  0
   -2.1434   -2.8875    0.0000 C   0  0  0  0  0  0  0  0  0  0  0  0
   -2.8579   -2.4750    0.0000 C   0  0  0  0  0  0  0  0  0  0  0  0
   -3.5724   -2.8875    0.0000 O   0  0  0  0  0  0  0  0  0  0  0  0
   -4.2868   -2.4750    0.0000 C   0  0  0  0  0  0  0  0  0  0  0  0
   -5.0013   -2.8875    0.0000 C   0  0  0  0  0  0  0  0  0  0  0  0
   -5.7158   -2.4750    0.0000 C   0  0  0  0  0  0  0  0  0  0  0  0
   -5.7158   -1.6500    0.0000 C   0  0  0  0  0  0  0  0  0  0  0  0
   -6.4302   -1.2375    0.0000 F   0  0  0  0  0  0  0  0  0  0  0  0
   -5.0013   -1.2375    0.0000 C   0  0  0  0  0  0  0  0  0  0  0  0
   -4.2868   -1.6500    0.0000 C   0  0  0  0  0  0  0  0  0  0  0  0
   -2.8579   -1.6500    0.0000 C   0  0  0  0  0  0  0  0  0  0  0  0
   -2.1434   -1.2375    0.0000 C   0  0  0  0  0  0  0  0  0  0  0  0
    0.7145   -1.2375    0.0000 N   0  0  0  0  0  0  0  0  0  0  0  0
    0.7145   -0.4125    0.0000 C   0  0  0  0  0  0  0  0  0  0  0  0
    1.4289    0.0000    0.0000 C   0  0  0  0  0  0  0  0  0  0  0  0
    2.1434   -0.4125    0.0000 C   0  0  0  0  0  0  0  0  0  0  0  0
    2.8579    0.0000    0.0000 N   0  0  0  0  0  0  0  0  0  0  0  0
    3.5724   -0.4125    0.0000 C   0  0  0  0  0  0  0  0  0  0  0  0
    3.5724   -1.2375    0.0000 C   0  0  0  0  0  0  0  0  0  0  0  0
    2.8579   -1.6500    0.0000 C   0  0  0  0  0  0  0  0  0  0  0  0
    2.1434   -1.2375    0.0000 C   0  0  0  0  0  0  0  0  0  0  0  0
    1.4289   -1.6500    0.0000 C   0  0  2  0  0  0  0  0  0  0  0  0
    1.4289   -2.4750    0.0000 C   0  0  0  0  0  0  0  0  0  0  0  0
    2.1434   -2.8875    0.0000 C   0  0  0  0  0  0  0  0  0  0  0  0
    2.1434   -3.7125    0.0000 C   0  0  0  0  0  0  0  0  0  0  0  0
    1.4289   -4.1250    0.0000 C   0  0  0  0  0  0  0  0  0  0  0  0
    1.4289   -4.9500    0.0000 Cl  0  0  0  0  0  0  0  0  0  0  0  0
    0.7145   -3.7125    0.0000 C   0  0  0  0  0  0  0  0  0  0  0  0
    0.7145   -2.8875    0.0000 C   0  0  0  0  0  0  0  0  0  0  0  0
  1  2  2  0  0  0  0
  2  3  1  0  0  0  0
  3  4  1  0  0  0  0
  4  5  4  0  0  0  0
  5  6  4  0  0  0  0
  6  7  4  0  0  0  0
  7  8  1  0  0  0  0
  8  9  1  0  0  0  0
  9 10  4  0  0  0  0
 10 11  4  0  0  0  0
 11 12  4  0  0  0  0
 12 13  1  0  0  0  0
 12 14  4  0  0  0  0
 14 15  4  0  0  0  0
  9 15  4  0  0  0  0
  7 16  4  0  0  0  0
 16 17  4  0  0  0  0
  4 17  4  0  0  0  0
  2 18  1  0  0  0  0
 18 19  1  0  0  0  0
 19 20  1  0  0  0  0
 20 21  1  0  0  0  0
 21 22  4  0  0  0  0
 22 23  4  0  0  0  0
 23 24  4  0  0  0  0
 24 25  4  0  0  0  0
 25 26  4  0  0  0  0
 21 26  4  0  0  0  0
 27 26  1  0  0  0  0
 27 18  1  0  0  0  0
 27 28  1  6  0  0  0
 28 29  4  0  0  0  0
 29 30  4  0  0  0  0
 30 31  4  0  0  0  0
 31 32  1  0  0  0  0
 31 33  4  0  0  0  0
 33 34  4  0  0  0  0
 28 34  4  0  0  0  0
M  END
>  <CdId>
264

>  <Mol Weight>
473.93

>  <Formula>
C27H21ClFN3O2

>  <Molecule ChEMBL ID>
CHEMBL4537998

>  <Molecule Max Phase>
None

>  <Molecular Weight>
473.94

>  <#RO5 Violations>
1

>  <AlogP>
6.85

>  <Compound Key>
33; BAY-298

>  <Standard Type>
IC50

>  <Standard Relation>
'='

>  <Standard Value>
700.0

>  <Standard Units>
nM

$$$$

  Mrv2114 03112311372D          

 19 21  0  0  1  0            999 V2000
    4.1801    0.6402    0.0000 O   0  0  0  0  0  0  0  0  0  0  0  0
    4.1801   -0.1848    0.0000 C   0  0  0  0  0  0  0  0  0  0  0  0
    4.8476   -0.6697    0.0000 C   0  0  0  0  0  0  0  0  0  0  0  0
    4.5926   -1.4544    0.0000 C   0  0  0  0  0  0  0  0  0  0  0  0
    5.0775   -2.1218    0.0000 C   0  0  1  0  0  0  0  0  0  0  0  0
    5.8980   -2.0356    0.0000 C   0  0  0  0  0  0  0  0  0  0  0  0
    6.3829   -2.7030    0.0000 C   0  0  0  0  0  0  0  0  0  0  0  0
    6.0474   -3.4567    0.0000 N   0  0  0  0  0  0  0  0  0  0  0  0
    5.2269   -3.5429    0.0000 C   0  0  1  0  0  0  0  0  0  0  0  0
    4.8914   -4.2966    0.0000 C   0  0  0  0  0  0  0  0  0  0  0  0
    4.0709   -4.3828    0.0000 C   0  0  0  0  0  0  0  0  0  0  0  0
    3.7353   -5.1365    0.0000 C   0  0  0  0  0  0  0  0  0  0  0  0
    2.9148   -5.2227    0.0000 C   0  0  0  0  0  0  0  0  0  0  0  0
    2.4299   -4.5553    0.0000 C   0  0  0  0  0  0  0  0  0  0  0  0
    2.7655   -3.8016    0.0000 C   0  0  0  0  0  0  0  0  0  0  0  0
    3.5859   -3.7154    0.0000 C   0  0  0  0  0  0  0  0  0  0  0  0
    4.7420   -2.8755    0.0000 C   0  0  0  0  0  0  0  0  0  0  0  0
    3.7676   -1.4544    0.0000 O   0  0  0  0  0  0  0  0  0  0  0  0
    3.5127   -0.6697    0.0000 N   0  0  0  0  0  0  0  0  0  0  0  0
  1  2  2  0  0  0  0
  2  3  4  0  0  0  0
  3  4  4  0  0  0  0
  5  4  1  1  0  0  0
  5  6  1  0  0  0  0
  6  7  1  0  0  0  0
  7  8  1  0  0  0  0
  9  8  1  0  0  0  0
  9 10  1  1  0  0  0
 10 11  1  0  0  0  0
 11 12  4  0  0  0  0
 12 13  4  0  0  0  0
 13 14  4  0  0  0  0
 14 15  4  0  0  0  0
 15 16  4  0  0  0  0
 11 16  4  0  0  0  0
  9 17  1  0  0  0  0
  5 17  1  0  0  0  0
  4 18  4  0  0  0  0
 18 19  4  0  0  0  0
  2 19  4  0  0  0  0
M  STY  1   1 DAT
M  SAL   1  1  19
M  SDT   1 MRV_IMPLICIT_H                                        
M  SDD   1     0.0000    0.0000    DR    ALL  0       0  
M  SED   1 IMPL_H1
M  END
>  <CdId>
265

>  <Mol Weight>
258.321

>  <Formula>
C15H18N2O2

>  <Molecule ChEMBL ID>
CHEMBL3287849

>  <Molecule Max Phase>
None

>  <Molecular Weight>
258.32

>  <#RO5 Violations>
0

>  <AlogP>
2.05

>  <Compound Key>
17

>  <Standard Type>
IC50

>  <Standard Relation>
'>'

>  <Standard Value>
2.0E7

>  <Standard Units>
nM

$$$$

  Mrv2114 03112311372D          

 33 37  0  0  0  0            999 V2000
    0.4255   -7.2870    0.0000 C   0  0  0  0  0  0  0  0  0  0  0  0
   -0.1876   -6.7350    0.0000 C   0  0  0  0  0  0  0  0  0  0  0  0
    0.3644   -6.1219    0.0000 C   0  0  0  0  0  0  0  0  0  0  0  0
   -0.7396   -7.3481    0.0000 C   0  0  0  0  0  0  0  0  0  0  0  0
   -0.8007   -6.1830    0.0000 N   0  0  0  0  0  0  0  0  0  0  0  0
   -1.6077   -6.3545    0.0000 N   0  0  0  0  0  0  0  0  0  0  0  0
   -2.0202   -5.6400    0.0000 N   0  0  0  0  0  0  0  0  0  0  0  0
   -1.4681   -5.0269    0.0000 N   0  0  0  0  0  0  0  0  0  0  0  0
   -0.7145   -5.3625    0.0000 C   0  0  0  0  0  0  0  0  0  0  0  0
    0.0000   -4.9500    0.0000 C   0  0  0  0  0  0  0  0  0  0  0  0
    0.0000   -4.1250    0.0000 C   0  0  0  0  0  0  0  0  0  0  0  0
   -0.7145   -3.7125    0.0000 C   0  0  0  0  0  0  0  0  0  0  0  0
   -0.7145   -2.8875    0.0000 C   0  0  0  0  0  0  0  0  0  0  0  0
    0.0000   -2.4750    0.0000 C   0  0  0  0  0  0  0  0  0  0  0  0
    0.7145   -2.8875    0.0000 C   0  0  0  0  0  0  0  0  0  0  0  0
    1.4289   -2.4750    0.0000 N   0  0  0  0  0  0  0  0  0  0  0  0
    1.4289   -1.6500    0.0000 C   0  0  0  0  0  0  0  0  0  0  0  0
    0.7145   -1.2375    0.0000 C   0  0  0  0  0  0  0  0  0  0  0  0
    0.7145   -0.4125    0.0000 C   0  0  0  0  0  0  0  0  0  0  0  0
    1.4289    0.0000    0.0000 N   0  0  0  0  0  0  0  0  0  0  0  0
    2.1434   -0.4125    0.0000 C   0  0  0  0  0  0  0  0  0  0  0  0
    2.8579    0.0000    0.0000 C   0  0  0  0  0  0  0  0  0  0  0  0
    3.5724   -0.4125    0.0000 C   0  0  0  0  0  0  0  0  0  0  0  0
    4.2868   -0.0000    0.0000 Cl  0  0  0  0  0  0  0  0  0  0  0  0
    3.5724   -1.2375    0.0000 C   0  0  0  0  0  0  0  0  0  0  0  0
    2.8579   -1.6500    0.0000 C   0  0  0  0  0  0  0  0  0  0  0  0
    2.1434   -1.2375    0.0000 C   0  0  0  0  0  0  0  0  0  0  0  0
    0.7145   -3.7125    0.0000 C   0  0  0  0  0  0  0  0  0  0  0  0
    0.7145   -5.3625    0.0000 N   0  0  0  0  0  0  0  0  0  0  0  0
    1.4681   -5.0269    0.0000 C   0  0  0  0  0  0  0  0  0  0  0  0
    2.0202   -5.6400    0.0000 C   0  0  0  0  0  0  0  0  0  0  0  0
    1.6077   -6.3545    0.0000 C   0  0  0  0  0  0  0  0  0  0  0  0
    0.8007   -6.1830    0.0000 C   0  0  0  0  0  0  0  0  0  0  0  0
  1  2  1  0  0  0  0
  2  3  1  0  0  0  0
  2  4  1  0  0  0  0
  2  5  1  0  0  0  0
  5  6  4  0  0  0  0
  6  7  4  0  0  0  0
  7  8  4  0  0  0  0
  8  9  4  0  0  0  0
  5  9  4  0  0  0  0
  9 10  1  0  0  0  0
 10 11  1  0  0  0  0
 11 12  4  0  0  0  0
 12 13  4  0  0  0  0
 13 14  4  0  0  0  0
 14 15  4  0  0  0  0
 15 16  1  0  0  0  0
 16 17  1  0  0  0  0
 17 18  4  0  0  0  0
 18 19  4  0  0  0  0
 19 20  4  0  0  0  0
 20 21  4  0  0  0  0
 21 22  4  0  0  0  0
 22 23  4  0  0  0  0
 23 24  1  0  0  0  0
 23 25  4  0  0  0  0
 25 26  4  0  0  0  0
 26 27  4  0  0  0  0
 17 27  4  0  0  0  0
 21 27  4  0  0  0  0
 15 28  4  0  0  0  0
 11 28  4  0  0  0  0
 10 29  1  0  0  0  0
 29 30  1  0  0  0  0
 30 31  1  0  0  0  0
 31 32  1  0  0  0  0
 32 33  1  0  0  0  0
 29 33  1  0  0  0  0
M  END
>  <CdId>
266

>  <Mol Weight>
462.0

>  <Formula>
C25H28ClN7

>  <Molecule ChEMBL ID>
CHEMBL2413882

>  <Molecule Max Phase>
None

>  <Molecular Weight>
462.0

>  <#RO5 Violations>
1

>  <AlogP>
5.56

>  <Compound Key>
6c

>  <Standard Type>
IC50

>  <Standard Relation>
'='

>  <Standard Value>
120.0

>  <Standard Units>
nM

$$$$

  Mrv2114 03112311372D          

 25 28  0  0  1  0            999 V2000
   -1.2288    1.7457    0.0000 C   0  0  0  0  0  0  0  0  0  0  0  0
   -0.8932    0.9920    0.0000 C   0  0  0  0  0  0  0  0  0  0  0  0
   -0.0862    0.8205    0.0000 C   0  0  0  0  0  0  0  0  0  0  0  0
    0.0000    0.0000    0.0000 C   0  0  0  0  0  0  0  0  0  0  0  0
    0.7145   -0.4125    0.0000 C   0  0  1  0  0  0  0  0  0  0  0  0
    1.4289    0.0000    0.0000 C   0  0  0  0  0  0  0  0  0  0  0  0
    2.1434   -0.4125    0.0000 C   0  0  1  0  0  0  0  0  0  0  0  0
    2.8579    0.0000    0.0000 C   0  0  0  0  0  0  0  0  0  0  0  0
    3.5724   -0.4125    0.0000 S   0  0  0  0  0  0  0  0  0  0  0  0
    3.5724   -1.2375    0.0000 C   0  0  0  0  0  0  0  0  0  0  0  0
    4.2868   -1.6500    0.0000 N   0  0  0  0  0  0  0  0  0  0  0  0
    2.8579   -1.6500    0.0000 N   0  0  0  0  0  0  0  0  0  0  0  0
    2.1434   -1.2375    0.0000 C   0  0  2  0  0  0  0  0  0  0  0  0
    2.1434   -2.0625    0.0000 C   0  0  0  0  0  0  0  0  0  0  0  0
    2.8579   -2.4750    0.0000 C   0  0  0  0  0  0  0  0  0  0  0  0
    2.8579   -3.3000    0.0000 C   0  0  0  0  0  0  0  0  0  0  0  0
    2.1434   -3.7125    0.0000 C   0  0  0  0  0  0  0  0  0  0  0  0
    2.1434   -4.5375    0.0000 F   0  0  0  0  0  0  0  0  0  0  0  0
    1.4289   -3.3000    0.0000 C   0  0  0  0  0  0  0  0  0  0  0  0
    1.4289   -2.4750    0.0000 C   0  0  0  0  0  0  0  0  0  0  0  0
    0.7145   -2.0625    0.0000 F   0  0  0  0  0  0  0  0  0  0  0  0
    1.4289   -1.6500    0.0000 C   0  0  0  0  0  0  0  0  0  0  0  0
    0.7145   -1.2375    0.0000 O   0  0  0  0  0  0  0  0  0  0  0  0
   -0.7537   -0.3356    0.0000 O   0  0  0  0  0  0  0  0  0  0  0  0
   -1.3057    0.2775    0.0000 N   0  0  0  0  0  0  0  0  0  0  0  0
  1  2  1  0  0  0  0
  2  3  4  0  0  0  0
  3  4  4  0  0  0  0
  5  4  1  1  0  0  0
  5  6  1  0  0  0  0
  7  6  1  1  0  0  0
  7  8  1  0  0  0  0
  8  9  1  0  0  0  0
  9 10  1  0  0  0  0
 10 11  1  0  0  0  0
 10 12  2  0  0  0  0
 13 12  1  0  0  0  0
  7 13  1  0  0  0  0
 13 14  1  6  0  0  0
 14 15  4  0  0  0  0
 15 16  4  0  0  0  0
 16 17  4  0  0  0  0
 17 18  1  0  0  0  0
 17 19  4  0  0  0  0
 19 20  4  0  0  0  0
 14 20  4  0  0  0  0
 20 21  1  0  0  0  0
 13 22  1  0  0  0  0
 22 23  1  0  0  0  0
  5 23  1  0  0  0  0
  4 24  4  0  0  0  0
 24 25  4  0  0  0  0
  2 25  4  0  0  0  0
M  END
>  <CdId>
267

>  <Mol Weight>
365.4

>  <Formula>
C17H17F2N3O2S

>  <Molecule ChEMBL ID>
CHEMBL3422237

>  <Molecule Max Phase>
None

>  <Molecular Weight>
365.41

>  <#RO5 Violations>
0

>  <AlogP>
3.3

>  <Compound Key>
4

>  <Standard Type>
IC50

>  <Standard Relation>
'>'

>  <Standard Value>
30000.0

>  <Standard Units>
nM

$$$$

  Mrv2114 03112311372D          

 26 29  0  0  1  0            999 V2000
    1.4289   -2.4750    0.0000 C   0  0  0  0  0  0  0  0  0  0  0  0
    1.4289   -1.6500    0.0000 C   0  0  1  0  0  0  0  0  0  0  0  0
    0.7145   -1.2375    0.0000 S   0  0  0  0  0  0  0  0  0  0  0  0
    0.7145   -0.4125    0.0000 C   0  0  0  0  0  0  0  0  0  0  0  0
    0.0000    0.0000    0.0000 N   0  0  0  0  0  0  0  0  0  0  0  0
    1.4289    0.0000    0.0000 N   0  0  0  0  0  0  0  0  0  0  0  0
    2.1434   -0.4125    0.0000 C   0  0  1  0  0  0  0  0  0  0  0  0
    2.1434    0.4125    0.0000 C   0  0  0  0  0  0  0  0  0  0  0  0
    1.4289    0.8250    0.0000 C   0  0  0  0  0  0  0  0  0  0  0  0
    1.4289    1.6500    0.0000 C   0  0  0  0  0  0  0  0  0  0  0  0
    2.1434    2.0625    0.0000 C   0  0  0  0  0  0  0  0  0  0  0  0
    2.1434    2.8875    0.0000 F   0  0  0  0  0  0  0  0  0  0  0  0
    2.8579    1.6500    0.0000 C   0  0  0  0  0  0  0  0  0  0  0  0
    2.8579    0.8250    0.0000 C   0  0  0  0  0  0  0  0  0  0  0  0
    3.5724    0.4125    0.0000 F   0  0  0  0  0  0  0  0  0  0  0  0
    2.8579    0.0000    0.0000 C   0  0  0  0  0  0  0  0  0  0  0  0
    3.5724   -0.4125    0.0000 O   0  0  0  0  0  0  0  0  0  0  0  0
    3.5724   -1.2375    0.0000 C   0  0  1  0  0  0  0  0  0  0  0  0
    4.2868   -1.6500    0.0000 C   0  0  0  0  0  0  0  0  0  0  0  0
    5.0405   -1.3144    0.0000 C   0  0  0  0  0  0  0  0  0  0  0  0
    5.5925   -1.9275    0.0000 N   0  0  0  0  0  0  0  0  0  0  0  0
    5.1800   -2.6420    0.0000 N   0  0  0  0  0  0  0  0  0  0  0  0
    5.5156   -3.3957    0.0000 C   0  0  0  0  0  0  0  0  0  0  0  0
    4.3731   -2.4705    0.0000 C   0  0  0  0  0  0  0  0  0  0  0  0
    2.8579   -1.6500    0.0000 C   0  0  0  0  0  0  0  0  0  0  0  0
    2.1434   -1.2375    0.0000 C   0  0  1  0  0  0  0  0  0  0  0  0
  2  1  1  1  0  0  0
  2  3  1  0  0  0  0
  3  4  1  0  0  0  0
  4  5  1  0  0  0  0
  4  6  2  0  0  0  0
  7  6  1  0  0  0  0
  7  8  1  6  0  0  0
  8  9  4  0  0  0  0
  9 10  4  0  0  0  0
 10 11  4  0  0  0  0
 11 12  1  0  0  0  0
 11 13  4  0  0  0  0
 13 14  4  0  0  0  0
  8 14  4  0  0  0  0
 14 15  1  0  0  0  0
  7 16  1  0  0  0  0
 16 17  1  0  0  0  0
 18 17  1  0  0  0  0
 18 19  1  1  0  0  0
 19 20  4  0  0  0  0
 20 21  4  0  0  0  0
 21 22  4  0  0  0  0
 22 23  1  0  0  0  0
 22 24  4  0  0  0  0
 19 24  4  0  0  0  0
 18 25  1  0  0  0  0
 26 25  1  1  0  0  0
 26  2  1  0  0  0  0
 26  7  1  0  0  0  0
M  END
>  <CdId>
268

>  <Mol Weight>
378.44

>  <Formula>
C18H20F2N4OS

>  <Molecule ChEMBL ID>
CHEMBL3422243

>  <Molecule Max Phase>
None

>  <Molecular Weight>
378.45

>  <#RO5 Violations>
0

>  <AlogP>
3.12

>  <Compound Key>
11

>  <Standard Type>
IC50

>  <Standard Relation>
'>'

>  <Standard Value>
30000.0

>  <Standard Units>
nM

$$$$

  Mrv2114 03112311372D          

 64 66  0  0  0  0            999 V2000
   17.6646   -7.1784    0.0000 C   0  0  0  0  0  0  0  0  0  0  0  0
   18.0771   -6.4639    0.0000 C   0  0  0  0  0  0  0  0  0  0  0  0
   18.9021   -6.4639    0.0000 C   0  0  0  0  0  0  0  0  0  0  0  0
   19.3146   -5.7495    0.0000 C   0  0  0  0  0  0  0  0  0  0  0  0
   20.1396   -5.7495    0.0000 C   0  0  0  0  0  0  0  0  0  0  0  0
   20.5521   -5.0350    0.0000 C   0  0  0  0  0  0  0  0  0  0  0  0
   21.3771   -5.0350    0.0000 C   0  0  0  0  0  0  0  0  0  0  0  0
   21.7896   -4.3205    0.0000 C   0  0  0  0  0  0  0  0  0  0  0  0
   22.6146   -4.3205    0.0000 C   0  0  0  0  0  0  0  0  0  0  0  0
   23.0271   -3.6061    0.0000 C   0  0  0  0  0  0  0  0  0  0  0  0
   23.8521   -3.6061    0.0000 C   0  0  0  0  0  0  0  0  0  0  0  0
   24.2646   -2.8916    0.0000 C   0  0  0  0  0  0  0  0  0  0  0  0
   23.8521   -2.1771    0.0000 O   0  0  0  0  0  0  0  0  0  0  0  0
   25.0896   -2.8916    0.0000 O   0  0  0  0  0  0  0  0  0  0  0  0
   25.5021   -2.1771    0.0000 C   0  0  0  0  0  0  0  0  0  0  0  0
   26.3271   -2.1771    0.0000 C   0  0  0  0  0  0  0  0  0  0  0  0
   26.7396   -1.4626    0.0000 C   0  0  0  0  0  0  0  0  0  0  0  0
   27.5646   -1.4626    0.0000 C   0  0  0  0  0  0  0  0  0  0  0  0
   27.9771   -0.7482    0.0000 P   0  0  0  0  0  0  0  0  0  0  0  0
   28.6916   -1.1607    0.0000 O   0  0  0  0  0  0  0  0  0  0  0  0
   27.2627   -0.3357    0.0000 O   0  0  0  0  0  0  0  0  0  0  0  0
   28.3896   -0.0337    0.0000 O   0  0  0  0  0  0  0  0  0  0  0  0
   29.2146   -0.0337    0.0000 C   0  0  0  0  0  0  0  0  0  0  0  0
   29.6271    0.6808    0.0000 C   0  0  0  0  0  0  0  0  0  0  0  0
   30.4521    0.6808    0.0000 N   0  0  0  0  0  0  0  0  0  0  0  0
   30.8646    1.3952    0.0000 C   0  0  0  0  0  0  0  0  0  0  0  0
   30.4521    2.1097    0.0000 O   0  0  0  0  0  0  0  0  0  0  0  0
   31.6896    1.3952    0.0000 C   0  0  0  0  0  0  0  0  0  0  0  0
   32.1021    2.1097    0.0000 C   0  0  0  0  0  0  0  0  0  0  0  0
   32.9271    2.1097    0.0000 C   0  0  0  0  0  0  0  0  0  0  0  0
   33.3396    1.3952    0.0000 C   0  0  0  0  0  0  0  0  0  0  0  0
   34.1646    1.3952    0.0000 C   0  0  0  0  0  0  0  0  0  0  0  0
   34.5771    2.1097    0.0000 N   0  0  0  0  0  0  0  0  0  0  0  0
   34.2416    2.8634    0.0000 C   0  0  0  0  0  0  0  0  0  0  0  0
   33.4346    3.0349    0.0000 O   0  0  0  0  0  0  0  0  0  0  0  0
   34.8547    3.4154    0.0000 N   0  0  0  0  0  0  0  0  0  0  0  0
   35.5691    3.0029    0.0000 C   0  0  0  0  0  0  0  0  0  0  0  0
   36.3538    3.2579    0.0000 C   0  0  0  0  0  0  0  0  0  0  0  0
   36.5253    4.0648    0.0000 N   0  0  0  0  0  0  0  0  0  0  0  0
   36.9668    2.7058    0.0000 N   0  0  0  0  0  0  0  0  0  0  0  0
   36.7953    1.8989    0.0000 C   0  0  0  0  0  0  0  0  0  0  0  0
   37.4084    1.3468    0.0000 O   0  0  0  0  0  0  0  0  0  0  0  0
   37.2369    0.5399    0.0000 C   0  0  0  0  0  0  0  0  0  0  0  0
   37.8500   -0.0122    0.0000 C   0  0  0  0  0  0  0  0  0  0  0  0
   37.6785   -0.8192    0.0000 O   0  0  0  0  0  0  0  0  0  0  0  0
   38.2915   -1.3712    0.0000 C   0  0  0  0  0  0  0  0  0  0  0  0
   36.0107    1.6439    0.0000 N   0  0  0  0  0  0  0  0  0  0  0  0
   35.3976    2.1960    0.0000 C   0  0  0  0  0  0  0  0  0  0  0  0
   32.9271    0.6808    0.0000 C   0  0  0  0  0  0  0  0  0  0  0  0
   32.1021    0.6808    0.0000 C   0  0  0  0  0  0  0  0  0  0  0  0
   26.7396   -2.8916    0.0000 O   0  0  0  0  0  0  0  0  0  0  0  0
   27.5646   -2.8916    0.0000 C   0  0  0  0  0  0  0  0  0  0  0  0
   27.9771   -2.1771    0.0000 O   0  0  0  0  0  0  0  0  0  0  0  0
   27.9771   -3.6061    0.0000 C   0  0  0  0  0  0  0  0  0  0  0  0
   28.8021   -3.6061    0.0000 C   0  0  0  0  0  0  0  0  0  0  0  0
   29.2146   -4.3205    0.0000 C   0  0  0  0  0  0  0  0  0  0  0  0
   30.0396   -4.3205    0.0000 C   0  0  0  0  0  0  0  0  0  0  0  0
   30.4521   -5.0350    0.0000 C   0  0  0  0  0  0  0  0  0  0  0  0
   31.2771   -5.0350    0.0000 C   0  0  0  0  0  0  0  0  0  0  0  0
   31.6896   -5.7495    0.0000 C   0  0  0  0  0  0  0  0  0  0  0  0
   32.5146   -5.7495    0.0000 C   0  0  0  0  0  0  0  0  0  0  0  0
   32.9271   -6.4639    0.0000 C   0  0  0  0  0  0  0  0  0  0  0  0
   33.7521   -6.4639    0.0000 C   0  0  0  0  0  0  0  0  0  0  0  0
   34.1646   -7.1784    0.0000 C   0  0  0  0  0  0  0  0  0  0  0  0
  1  2  1  0  0  0  0
  2  3  1  0  0  0  0
  3  4  1  0  0  0  0
  4  5  1  0  0  0  0
  5  6  1  0  0  0  0
  6  7  1  0  0  0  0
  7  8  1  0  0  0  0
  8  9  1  0  0  0  0
  9 10  1  0  0  0  0
 10 11  1  0  0  0  0
 11 12  1  0  0  0  0
 12 13  2  0  0  0  0
 12 14  1  0  0  0  0
 14 15  1  0  0  0  0
 15 16  1  0  0  0  0
 16 17  1  0  0  0  0
 17 18  1  0  0  0  0
 18 19  1  0  0  0  0
 19 20  2  0  0  0  0
 19 21  1  0  0  0  0
 19 22  1  0  0  0  0
 22 23  1  0  0  0  0
 23 24  1  0  0  0  0
 24 25  1  0  0  0  0
 25 26  1  0  0  0  0
 26 27  2  0  0  0  0
 26 28  1  0  0  0  0
 28 29  4  0  0  0  0
 29 30  4  0  0  0  0
 30 31  4  0  0  0  0
 31 32  1  0  0  0  0
 32 33  1  0  0  0  0
 33 34  4  0  0  0  0
 34 35  2  0  0  0  0
 34 36  4  0  0  0  0
 36 37  4  0  0  0  0
 37 38  4  0  0  0  0
 38 39  1  0  0  0  0
 38 40  4  0  0  0  0
 40 41  4  0  0  0  0
 41 42  1  0  0  0  0
 42 43  1  0  0  0  0
 43 44  1  0  0  0  0
 44 45  1  0  0  0  0
 45 46  1  0  0  0  0
 41 47  4  0  0  0  0
 47 48  4  0  0  0  0
 37 48  4  0  0  0  0
 33 48  4  0  0  0  0
 31 49  4  0  0  0  0
 49 50  4  0  0  0  0
 28 50  4  0  0  0  0
 16 51  1  0  0  0  0
 51 52  1  0  0  0  0
 52 53  2  0  0  0  0
 52 54  1  0  0  0  0
 54 55  1  0  0  0  0
 55 56  1  0  0  0  0
 56 57  1  0  0  0  0
 57 58  1  0  0  0  0
 58 59  1  0  0  0  0
 59 60  1  0  0  0  0
 60 61  1  0  0  0  0
 61 62  1  0  0  0  0
 62 63  1  0  0  0  0
 63 64  1  0  0  0  0
M  STY  1   1 DAT
M  SAL   1  1  36
M  SDT   1 MRV_IMPLICIT_H                                        
M  SDD   1     0.0000    0.0000    DR    ALL  0       0  
M  SED   1 IMPL_H1
M  END
>  <CdId>
269

>  <Mol Weight>
919.111

>  <Formula>
C46H75N6O11P

>  <Molecule ChEMBL ID>
CHEMBL4107005

>  <Molecule Max Phase>
None

>  <Molecular Weight>
919.11

>  <#RO5 Violations>
3

>  <AlogP>
8.39

>  <Compound Key>
BDBM189322

>  <Standard Type>
IC50

>  <Standard Relation>
'>'

>  <Standard Value>
100000.0

>  <Standard Units>
nM

$$$$

  Mrv2114 03112311372D          

 28 30  0  0  0  0            999 V2000
    2.9684   -0.4125    0.0000 N   0  0  0  0  0  0  0  0  0  0  0  0
    2.1434   -0.4125    0.0000 S   0  0  0  0  0  0  0  0  0  0  0  0
    2.1434    0.4125    0.0000 O   0  0  0  0  0  0  0  0  0  0  0  0
    1.3184   -0.4125    0.0000 O   0  0  0  0  0  0  0  0  0  0  0  0
    2.1434   -1.2375    0.0000 C   0  0  0  0  0  0  0  0  0  0  0  0
    1.4289   -1.6500    0.0000 C   0  0  0  0  0  0  0  0  0  0  0  0
    1.4289   -2.4750    0.0000 C   0  0  0  0  0  0  0  0  0  0  0  0
    0.7145   -2.8875    0.0000 N   0  0  0  0  0  0  0  0  0  0  0  0
    0.7145   -3.7125    0.0000 C   0  0  0  0  0  0  0  0  0  0  0  0
    0.0000   -4.1250    0.0000 O   0  0  0  0  0  0  0  0  0  0  0  0
    1.4289   -4.1250    0.0000 C   0  0  0  0  0  0  0  0  0  0  0  0
    1.4289   -4.9500    0.0000 C   0  0  0  0  0  0  0  0  0  0  0  0
    2.1434   -5.3625    0.0000 C   0  0  0  0  0  0  0  0  0  0  0  0
    2.1434   -6.1875    0.0000 C   0  0  0  0  0  0  0  0  0  0  0  0
    1.4289   -6.6000    0.0000 C   0  0  0  0  0  0  0  0  0  0  0  0
    0.7145   -6.1875    0.0000 C   0  0  0  0  0  0  0  0  0  0  0  0
    0.7145   -5.3625    0.0000 C   0  0  0  0  0  0  0  0  0  0  0  0
    2.1434   -2.8875    0.0000 C   0  0  0  0  0  0  0  0  0  0  0  0
    2.8579   -2.4750    0.0000 C   0  0  0  0  0  0  0  0  0  0  0  0
    2.8579   -1.6500    0.0000 C   0  0  0  0  0  0  0  0  0  0  0  0
    3.5724   -1.2375    0.0000 O   0  0  0  0  0  0  0  0  0  0  0  0
    4.2868   -1.6500    0.0000 C   0  0  0  0  0  0  0  0  0  0  0  0
    5.0013   -1.2375    0.0000 C   0  0  0  0  0  0  0  0  0  0  0  0
    5.7158   -1.6500    0.0000 C   0  0  0  0  0  0  0  0  0  0  0  0
    5.7158   -2.4750    0.0000 C   0  0  0  0  0  0  0  0  0  0  0  0
    5.0013   -2.8875    0.0000 C   0  0  0  0  0  0  0  0  0  0  0  0
    5.0013   -3.7125    0.0000 Cl  0  0  0  0  0  0  0  0  0  0  0  0
    4.2868   -2.4750    0.0000 C   0  0  0  0  0  0  0  0  0  0  0  0
  1  2  1  0  0  0  0
  2  3  2  0  0  0  0
  2  4  2  0  0  0  0
  2  5  1  0  0  0  0
  5  6  4  0  0  0  0
  6  7  4  0  0  0  0
  7  8  1  0  0  0  0
  8  9  1  0  0  0  0
  9 10  2  0  0  0  0
  9 11  1  0  0  0  0
 11 12  1  0  0  0  0
 12 13  4  0  0  0  0
 13 14  4  0  0  0  0
 14 15  4  0  0  0  0
 15 16  4  0  0  0  0
 16 17  4  0  0  0  0
 12 17  4  0  0  0  0
  7 18  4  0  0  0  0
 18 19  4  0  0  0  0
 19 20  4  0  0  0  0
  5 20  4  0  0  0  0
 20 21  1  0  0  0  0
 21 22  1  0  0  0  0
 22 23  4  0  0  0  0
 23 24  4  0  0  0  0
 24 25  4  0  0  0  0
 25 26  4  0  0  0  0
 26 27  1  0  0  0  0
 26 28  4  0  0  0  0
 22 28  4  0  0  0  0
M  END
>  <CdId>
270

>  <Mol Weight>
416.88

>  <Formula>
C20H17ClN2O4S

>  <Molecule ChEMBL ID>
CHEMBL4521594

>  <Molecule Name>
BAY-1797

>  <Molecule Max Phase>
None

>  <Molecular Weight>
416.89

>  <#RO5 Violations>
0

>  <AlogP>
3.96

>  <Compound Key>
10; BAY-1797

>  <Standard Type>
IC50

>  <Standard Relation>
'='

>  <Standard Value>
1800.0

>  <Standard Units>
nM

$$$$

  Mrv2114 03112311372D          

 30 34  0  0  1  0            999 V2000
    1.5983   -3.3875    0.0000 C   0  0  0  0  0  0  0  0  0  0  0  0
    1.8532   -2.6029    0.0000 C   0  0  1  0  0  0  0  0  0  0  0  0
    1.3683   -1.9354    0.0000 C   0  0  0  0  0  0  0  0  0  0  0  0
    1.8532   -1.2680    0.0000 O   0  0  0  0  0  0  0  0  0  0  0  0
    2.6378   -1.5229    0.0000 C   0  0  2  0  0  0  0  0  0  0  0  0
    3.3523   -1.1104    0.0000 C   0  0  0  0  0  0  0  0  0  0  0  0
    4.0668   -1.5229    0.0000 N   0  0  0  0  0  0  0  0  0  0  0  0
    4.7812   -1.1104    0.0000 C   0  0  0  0  0  0  0  0  0  0  0  0
    5.4957   -1.5229    0.0000 C   0  0  0  0  0  0  0  0  0  0  0  0
    6.2102   -1.1104    0.0000 C   0  0  0  0  0  0  0  0  0  0  0  0
    6.2102   -0.2854    0.0000 O   0  0  0  0  0  0  0  0  0  0  0  0
    6.9246   -1.5229    0.0000 N   0  0  0  0  0  0  0  0  0  0  0  0
    7.6391   -1.1104    0.0000 C   0  0  0  0  0  0  0  0  0  0  0  0
    8.3536   -1.5229    0.0000 C   0  0  0  0  0  0  0  0  0  0  0  0
    9.0681   -1.1104    0.0000 C   0  0  0  0  0  0  0  0  0  0  0  0
    9.7825   -1.5229    0.0000 C   0  0  0  0  0  0  0  0  0  0  0  0
    9.7825   -2.3479    0.0000 C   0  0  0  0  0  0  0  0  0  0  0  0
   10.3956   -2.9000    0.0000 N   0  0  0  0  0  0  0  0  0  0  0  0
   10.0601   -3.6537    0.0000 O   0  0  0  0  0  0  0  0  0  0  0  0
    9.2396   -3.5674    0.0000 N   0  0  0  0  0  0  0  0  0  0  0  0
    9.0681   -2.7604    0.0000 C   0  0  0  0  0  0  0  0  0  0  0  0
    8.3536   -2.3479    0.0000 C   0  0  0  0  0  0  0  0  0  0  0  0
    5.4957   -2.3479    0.0000 C   0  0  0  0  0  0  0  0  0  0  0  0
    6.2102   -2.7604    0.0000 O   0  0  0  0  0  0  0  0  0  0  0  0
    4.7812   -2.7604    0.0000 C   0  0  0  0  0  0  0  0  0  0  0  0
    4.7812   -3.5854    0.0000 O   0  0  0  0  0  0  0  0  0  0  0  0
    4.0668   -2.3479    0.0000 C   0  0  0  0  0  0  0  0  0  0  0  0
    3.3523   -2.7604    0.0000 C   0  0  0  0  0  0  0  0  0  0  0  0
    3.3523   -3.5854    0.0000 O   0  0  0  0  0  0  0  0  0  0  0  0
    2.6378   -2.3479    0.0000 N   0  0  0  0  0  0  0  0  0  0  0  0
  2  1  1  1  0  0  0
  2  3  1  0  0  0  0
  3  4  1  0  0  0  0
  5  4  1  0  0  0  0
  5  6  1  0  0  0  0
  6  7  1  0  0  0  0
  7  8  4  0  0  0  0
  8  9  4  0  0  0  0
  9 10  1  0  0  0  0
 10 11  2  0  0  0  0
 10 12  1  0  0  0  0
 12 13  1  0  0  0  0
 13 14  1  0  0  0  0
 14 15  4  0  0  0  0
 15 16  4  0  0  0  0
 16 17  4  0  0  0  0
 17 18  4  0  0  0  0
 18 19  4  0  0  0  0
 19 20  4  0  0  0  0
 20 21  4  0  0  0  0
 17 21  4  0  0  0  0
 21 22  4  0  0  0  0
 14 22  4  0  0  0  0
  9 23  4  0  0  0  0
 23 24  2  0  0  0  0
 23 25  4  0  0  0  0
 25 26  1  0  0  0  0
 25 27  4  0  0  0  0
  7 27  4  0  0  0  0
 27 28  1  0  0  0  0
 28 29  2  0  0  0  0
 28 30  1  0  0  0  0
  2 30  1  0  0  0  0
  5 30  1  6  0  0  0
M  END
>  <CdId>
271

>  <Mol Weight>
411.374

>  <Formula>
C19H17N5O6

>  <Molecule ChEMBL ID>
CHEMBL4784137

>  <Molecule Max Phase>
None

>  <Molecular Weight>
411.37

>  <#RO5 Violations>
0

>  <AlogP>
0.22

>  <Compound Key>
1(4)

>  <Standard Type>
IC50

>  <Standard Relation>
'>'

>  <Standard Value>
10000.0

>  <Standard Units>
nM

$$$$

  Mrv2114 03112311372D          

 50 55  0  0  0  0            999 V2000
   -7.0380   -2.5366    0.0000 N   0  0  0  0  0  0  0  0  0  0  0  0
   -7.0380   -3.3616    0.0000 C   0  0  0  0  0  0  0  0  0  0  0  0
   -7.0380   -4.1866    0.0000 C   0  0  0  0  0  0  0  0  0  0  0  0
   -6.3235   -4.5991    0.0000 C   0  0  0  0  0  0  0  0  0  0  0  0
   -6.3235   -5.4241    0.0000 C   0  0  0  0  0  0  0  0  0  0  0  0
   -5.6091   -5.8366    0.0000 S   0  0  0  0  0  0  0  0  0  0  0  0
   -5.1966   -5.1221    0.0000 O   0  0  0  0  0  0  0  0  0  0  0  0
   -6.0216   -6.5511    0.0000 O   0  0  0  0  0  0  0  0  0  0  0  0
   -4.8946   -6.2491    0.0000 N   0  0  0  0  0  0  0  0  0  0  0  0
   -4.8946   -7.0741    0.0000 C   0  0  0  0  0  0  0  0  0  0  0  0
   -4.2272   -7.5590    0.0000 N   0  0  0  0  0  0  0  0  0  0  0  0
   -4.4821   -8.3437    0.0000 C   0  0  0  0  0  0  0  0  0  0  0  0
   -5.3071   -8.3437    0.0000 N   0  0  0  0  0  0  0  0  0  0  0  0
   -5.5620   -7.5590    0.0000 S   0  0  0  0  0  0  0  0  0  0  0  0
   -7.0380   -5.8366    0.0000 C   0  0  0  0  0  0  0  0  0  0  0  0
   -7.7525   -5.4241    0.0000 C   0  0  0  0  0  0  0  0  0  0  0  0
   -7.7525   -4.5991    0.0000 C   0  0  0  0  0  0  0  0  0  0  0  0
   -8.4669   -4.1866    0.0000 O   0  0  0  0  0  0  0  0  0  0  0  0
   -9.1814   -4.5991    0.0000 C   0  0  0  0  0  0  0  0  0  0  0  0
   -9.1814   -5.4241    0.0000 C   0  0  0  0  0  0  0  0  0  0  0  0
   -9.8959   -5.8366    0.0000 C   0  0  0  0  0  0  0  0  0  0  0  0
  -10.6104   -5.4241    0.0000 C   0  0  0  0  0  0  0  0  0  0  0  0
  -11.3248   -5.8366    0.0000 C   0  0  0  0  0  0  0  0  0  0  0  0
  -11.3248   -6.6616    0.0000 C   0  0  0  0  0  0  0  0  0  0  0  0
  -12.0393   -7.0741    0.0000 C   0  0  0  0  0  0  0  0  0  0  0  0
  -12.7538   -6.6616    0.0000 C   0  0  0  0  0  0  0  0  0  0  0  0
  -12.7538   -5.8366    0.0000 C   0  0  0  0  0  0  0  0  0  0  0  0
  -13.4682   -5.4241    0.0000 C   0  0  0  0  0  0  0  0  0  0  0  0
  -14.1827   -5.0116    0.0000 F   0  0  0  0  0  0  0  0  0  0  0  0
  -13.0557   -4.7096    0.0000 F   0  0  0  0  0  0  0  0  0  0  0  0
  -13.8807   -6.1386    0.0000 F   0  0  0  0  0  0  0  0  0  0  0  0
  -12.0393   -5.4241    0.0000 C   0  0  0  0  0  0  0  0  0  0  0  0
  -10.6104   -4.5991    0.0000 C   0  0  0  0  0  0  0  0  0  0  0  0
   -9.8959   -4.1866    0.0000 C   0  0  0  0  0  0  0  0  0  0  0  0
   -9.8959   -3.3616    0.0000 C   0  0  0  0  0  0  0  0  0  0  0  0
  -10.6104   -2.9491    0.0000 C   0  0  0  0  0  0  0  0  0  0  0  0
  -10.6104   -2.1241    0.0000 C   0  0  0  0  0  0  0  0  0  0  0  0
   -9.8959   -1.7116    0.0000 N   0  0  0  0  0  0  0  0  0  0  0  0
   -9.1814   -2.1241    0.0000 C   0  0  0  0  0  0  0  0  0  0  0  0
   -8.4669   -1.7116    0.0000 C   0  0  0  0  0  0  0  0  0  0  0  0
   -8.4669   -0.8866    0.0000 N   0  0  0  0  0  0  0  0  0  0  0  0
   -7.7525   -0.4741    0.0000 C   0  0  0  0  0  0  0  0  0  0  0  0
   -7.7525    0.3509    0.0000 C   0  0  0  0  0  0  0  0  0  0  0  0
   -8.4669    0.7634    0.0000 C   0  0  0  0  0  0  0  0  0  0  0  0
   -9.1814    0.3509    0.0000 C   0  0  0  0  0  0  0  0  0  0  0  0
   -9.8959    0.7634    0.0000 C   0  0  0  0  0  0  0  0  0  0  0  0
   -9.8959    1.5884    0.0000 N   0  0  0  0  0  0  0  0  0  0  0  0
   -9.1814    2.0009    0.0000 C   0  0  0  0  0  0  0  0  0  0  0  0
   -8.4669    1.5884    0.0000 C   0  0  0  0  0  0  0  0  0  0  0  0
   -9.1814   -2.9491    0.0000 C   0  0  0  0  0  0  0  0  0  0  0  0
  1  2  3  0  0  0  0
  2  3  1  0  0  0  0
  3  4  4  0  0  0  0
  4  5  4  0  0  0  0
  5  6  1  0  0  0  0
  6  7  2  0  0  0  0
  6  8  2  0  0  0  0
  6  9  1  0  0  0  0
  9 10  1  0  0  0  0
 10 11  4  0  0  0  0
 11 12  4  0  0  0  0
 12 13  4  0  0  0  0
 13 14  4  0  0  0  0
 10 14  4  0  0  0  0
  5 15  4  0  0  0  0
 15 16  4  0  0  0  0
 16 17  4  0  0  0  0
  3 17  4  0  0  0  0
 17 18  1  0  0  0  0
 18 19  1  0  0  0  0
 19 20  4  0  0  0  0
 20 21  4  0  0  0  0
 21 22  4  0  0  0  0
 22 23  1  0  0  0  0
 23 24  4  0  0  0  0
 24 25  4  0  0  0  0
 25 26  4  0  0  0  0
 26 27  4  0  0  0  0
 27 28  1  0  0  0  0
 28 29  1  0  0  0  0
 28 30  1  0  0  0  0
 28 31  1  0  0  0  0
 27 32  4  0  0  0  0
 23 32  4  0  0  0  0
 22 33  4  0  0  0  0
 33 34  4  0  0  0  0
 19 34  4  0  0  0  0
 34 35  1  0  0  0  0
 35 36  4  0  0  0  0
 36 37  4  0  0  0  0
 37 38  4  0  0  0  0
 38 39  4  0  0  0  0
 39 40  1  0  0  0  0
 40 41  1  0  0  0  0
 41 42  1  0  0  0  0
 42 43  1  0  0  0  0
 43 44  1  0  0  0  0
 44 45  1  0  0  0  0
 45 46  1  0  0  0  0
 46 47  1  0  0  0  0
 47 48  1  0  0  0  0
 48 49  1  0  0  0  0
 44 49  1  0  0  0  0
 39 50  4  0  0  0  0
 35 50  4  0  0  0  0
M  END
>  <CdId>
272

>  <Mol Weight>
719.8

>  <Formula>
C35H32F3N7O3S2

>  <Molecule ChEMBL ID>
CHEMBL4217988

>  <Molecule Max Phase>
None

>  <Molecular Weight>
719.82

>  <#RO5 Violations>
2

>  <AlogP>
7.23

>  <Compound Key>
5; PF-06456384

>  <Standard Type>
IC50

>  <Standard Relation>
'='

>  <Standard Value>
6170.0

>  <Standard Units>
nM

$$$$

  Mrv2114 03112311372D          

 27 29  0  0  1  0            999 V2000
    2.8579    0.0000    0.0000 C   0  0  0  0  0  0  0  0  0  0  0  0
    3.5724    0.4125    0.0000 C   0  0  0  0  0  0  0  0  0  0  0  0
    4.2868    0.0000    0.0000 C   0  0  0  0  0  0  0  0  0  0  0  0
    5.0013    0.4125    0.0000 C   0  0  0  0  0  0  0  0  0  0  0  0
    5.7158    0.0000    0.0000 N   0  0  0  0  0  0  0  0  0  0  0  0
    6.4302    0.4125    0.0000 C   0  0  0  0  0  0  0  0  0  0  0  0
    6.4302    1.2375    0.0000 N   0  0  0  0  0  0  0  0  0  0  0  0
    7.1447    1.6500    0.0000 C   0  0  0  0  0  0  0  0  0  0  0  0
    7.1447    2.4750    0.0000 N   0  0  0  0  0  0  0  0  0  0  0  0
    7.8592    1.2375    0.0000 N   0  0  0  0  0  0  0  0  0  0  0  0
    7.8592    0.4125    0.0000 C   0  0  0  0  0  0  0  0  0  0  0  0
    8.5737    0.0000    0.0000 C   0  0  0  0  0  0  0  0  0  0  0  0
    8.5737   -0.8250    0.0000 C   0  0  0  0  0  0  0  0  0  0  0  0
    7.8592   -1.2375    0.0000 C   0  0  0  0  0  0  0  0  0  0  0  0
    7.1447   -0.8250    0.0000 C   0  0  0  0  0  0  0  0  0  0  0  0
    6.4302   -1.2375    0.0000 C   0  0  0  0  0  0  0  0  0  0  0  0
    6.4302   -2.0625    0.0000 O   0  0  0  0  0  0  0  0  0  0  0  0
    5.7158   -0.8250    0.0000 N   0  0  0  0  0  0  0  0  0  0  0  0
    5.0013   -1.2375    0.0000 C   0  0  2  0  0  0  0  0  0  0  0  0
    4.2868   -0.8250    0.0000 C   0  0  0  0  0  0  0  0  0  0  0  0
    5.0013   -2.0625    0.0000 C   0  0  0  0  0  0  0  0  0  0  0  0
    5.7158   -2.4750    0.0000 C   0  0  0  0  0  0  0  0  0  0  0  0
    5.7158   -3.3000    0.0000 C   0  0  0  0  0  0  0  0  0  0  0  0
    5.0013   -3.7125    0.0000 C   0  0  0  0  0  0  0  0  0  0  0  0
    4.2868   -3.3000    0.0000 C   0  0  0  0  0  0  0  0  0  0  0  0
    4.2868   -2.4750    0.0000 C   0  0  0  0  0  0  0  0  0  0  0  0
    7.1447    0.0000    0.0000 C   0  0  0  0  0  0  0  0  0  0  0  0
  1  2  1  0  0  0  0
  2  3  1  0  0  0  0
  3  4  1  0  0  0  0
  4  5  1  0  0  0  0
  5  6  1  0  0  0  0
  6  7  4  0  0  0  0
  7  8  4  0  0  0  0
  8  9  1  0  0  0  0
  8 10  4  0  0  0  0
 10 11  4  0  0  0  0
 11 12  4  0  0  0  0
 12 13  4  0  0  0  0
 13 14  4  0  0  0  0
 14 15  4  0  0  0  0
 15 16  1  0  0  0  0
 16 17  2  0  0  0  0
 16 18  1  0  0  0  0
 19 18  1  0  0  0  0
 19 20  1  1  0  0  0
 19 21  1  0  0  0  0
 21 22  4  0  0  0  0
 22 23  4  0  0  0  0
 23 24  4  0  0  0  0
 24 25  4  0  0  0  0
 25 26  4  0  0  0  0
 21 26  4  0  0  0  0
 15 27  4  0  0  0  0
  6 27  4  0  0  0  0
 11 27  4  0  0  0  0
M  END
>  <CdId>
273

>  <Mol Weight>
363.465

>  <Formula>
C21H25N5O

>  <Molecule ChEMBL ID>
CHEMBL4202404

>  <Molecule Max Phase>
None

>  <Molecular Weight>
363.46

>  <#RO5 Violations>
0

>  <AlogP>
3.92

>  <Compound Key>
47

>  <Standard Type>
IC50

>  <Standard Relation>
'>'

>  <Standard Value>
10000.0

>  <Standard Units>
nM

$$$$

  Mrv2114 03112311372D          

 18 19  0  0  0  0            999 V2000
    2.8579   -1.6500    0.0000 C   0  0  0  0  0  0  0  0  0  0  0  0
    3.5724   -2.0625    0.0000 C   0  0  0  0  0  0  0  0  0  0  0  0
    3.5724   -2.8875    0.0000 C   0  0  0  0  0  0  0  0  0  0  0  0
    4.2868   -1.6500    0.0000 C   0  0  0  0  0  0  0  0  0  0  0  0
    5.0013   -2.0625    0.0000 C   0  0  0  0  0  0  0  0  0  0  0  0
    5.7158   -1.6500    0.0000 N   0  0  0  0  0  0  0  0  0  0  0  0
    6.4302   -2.0625    0.0000 C   0  0  0  0  0  0  0  0  0  0  0  0
    7.1447   -1.6500    0.0000 C   0  0  0  0  0  0  0  0  0  0  0  0
    7.8592   -2.0625    0.0000 C   0  0  0  0  0  0  0  0  0  0  0  0
    8.5737   -1.6500    0.0000 O   0  0  0  0  0  0  0  0  0  0  0  0
    7.8592   -2.8875    0.0000 C   0  0  0  0  0  0  0  0  0  0  0  0
    8.5737   -3.3000    0.0000 C   0  0  0  0  0  0  0  0  0  0  0  0
    8.5737   -4.1250    0.0000 C   0  0  0  0  0  0  0  0  0  0  0  0
    7.8592   -4.5375    0.0000 C   0  0  0  0  0  0  0  0  0  0  0  0
    7.1447   -4.1250    0.0000 C   0  0  0  0  0  0  0  0  0  0  0  0
    7.1447   -3.3000    0.0000 C   0  0  0  0  0  0  0  0  0  0  0  0
    6.4302   -2.8875    0.0000 C   0  0  0  0  0  0  0  0  0  0  0  0
    5.7158   -3.3000    0.0000 O   0  0  0  0  0  0  0  0  0  0  0  0
  1  2  1  0  0  0  0
  2  3  1  0  0  0  0
  2  4  1  0  0  0  0
  4  5  1  0  0  0  0
  5  6  1  0  0  0  0
  6  7  1  0  0  0  0
  7  8  2  0  0  0  0
  8  9  1  0  0  0  0
  9 10  2  0  0  0  0
  9 11  1  0  0  0  0
 11 12  4  0  0  0  0
 12 13  4  0  0  0  0
 13 14  4  0  0  0  0
 14 15  4  0  0  0  0
 15 16  4  0  0  0  0
 11 16  4  0  0  0  0
 16 17  1  0  0  0  0
  7 17  1  0  0  0  0
 17 18  2  0  0  0  0
M  END
>  <CdId>
274

>  <Mol Weight>
243.306

>  <Formula>
C15H17NO2

>  <Molecule ChEMBL ID>
CHEMBL4642567

>  <Molecule Max Phase>
None

>  <Molecular Weight>
243.31

>  <#RO5 Violations>
0

>  <AlogP>
2.59

>  <Compound Key>
3d; NT-102

>  <Standard Type>
IC50

>  <Standard Relation>
'='

>  <Standard Value>
54100.0

>  <Standard Units>
nM

$$$$

  Mrv2114 03112311372D          

 31 34  0  0  1  0            999 V2000
   -2.1349   -0.6674    0.0000 C   0  0  0  0  0  0  0  0  0  0  0  0
   -1.3099   -0.6674    0.0000 S   0  0  0  0  0  0  0  0  0  0  0  0
   -1.3099   -1.4924    0.0000 O   0  0  0  0  0  0  0  0  0  0  0  0
   -1.3099    0.1576    0.0000 O   0  0  0  0  0  0  0  0  0  0  0  0
   -0.4849   -0.6674    0.0000 N   0  0  0  0  0  0  0  0  0  0  0  0
   -0.0000   -1.3349    0.0000 C   0  0  0  0  0  0  0  0  0  0  0  0
    0.7846   -1.0799    0.0000 C   0  0  0  0  0  0  0  0  0  0  0  0
    0.7846   -0.2549    0.0000 C   0  0  0  0  0  0  0  0  0  0  0  0
   -0.0000    0.0000    0.0000 N   0  0  0  0  0  0  0  0  0  0  0  0
    1.5692    0.0000    0.0000 C   0  0  0  0  0  0  0  0  0  0  0  0
    2.0542   -0.6674    0.0000 N   0  0  0  0  0  0  0  0  0  0  0  0
    2.8792   -0.6674    0.0000 C   0  0  2  0  0  0  0  0  0  0  0  0
    3.2917    0.0470    0.0000 C   0  0  0  0  0  0  0  0  0  0  0  0
    4.1167    0.0470    0.0000 C   0  0  2  0  0  0  0  0  0  0  0  0
    4.5292    0.7615    0.0000 N   0  0  0  0  0  0  0  0  0  0  0  0
    4.5292   -0.6674    0.0000 C   0  0  1  0  0  0  0  0  0  0  0  0
    5.3542   -0.6674    0.0000 C   0  0  0  0  0  0  0  0  0  0  0  0
    5.7667    0.0470    0.0000 C   0  0  0  0  0  0  0  0  0  0  0  0
    6.5917    0.0470    0.0000 C   0  0  0  0  0  0  0  0  0  0  0  0
    7.0042    0.7615    0.0000 F   0  0  0  0  0  0  0  0  0  0  0  0
    7.0042   -0.6674    0.0000 C   0  0  0  0  0  0  0  0  0  0  0  0
    6.5917   -1.3819    0.0000 C   0  0  0  0  0  0  0  0  0  0  0  0
    5.7667   -1.3819    0.0000 C   0  0  0  0  0  0  0  0  0  0  0  0
    5.3542   -2.0964    0.0000 F   0  0  0  0  0  0  0  0  0  0  0  0
    4.1167   -1.3819    0.0000 O   0  0  0  0  0  0  0  0  0  0  0  0
    3.2917   -1.3819    0.0000 C   0  0  2  0  0  0  0  0  0  0  0  0
    2.8792   -2.0964    0.0000 C   0  0  0  0  0  0  0  0  0  0  0  0
    2.4667   -2.8109    0.0000 F   0  0  0  0  0  0  0  0  0  0  0  0
    2.1647   -1.6839    0.0000 F   0  0  0  0  0  0  0  0  0  0  0  0
    3.5936   -2.5089    0.0000 F   0  0  0  0  0  0  0  0  0  0  0  0
    1.5692   -1.3349    0.0000 C   0  0  0  0  0  0  0  0  0  0  0  0
  1  2  1  0  0  0  0
  2  3  2  0  0  0  0
  2  4  2  0  0  0  0
  2  5  1  0  0  0  0
  5  6  4  0  0  0  0
  6  7  4  0  0  0  0
  7  8  4  0  0  0  0
  8  9  4  0  0  0  0
  5  9  4  0  0  0  0
  8 10  1  0  0  0  0
 10 11  1  0  0  0  0
 12 11  1  6  0  0  0
 12 13  1  0  0  0  0
 14 13  1  0  0  0  0
 14 15  1  6  0  0  0
 14 16  1  0  0  0  0
 16 17  1  1  0  0  0
 17 18  4  0  0  0  0
 18 19  4  0  0  0  0
 19 20  1  0  0  0  0
 19 21  4  0  0  0  0
 21 22  4  0  0  0  0
 22 23  4  0  0  0  0
 17 23  4  0  0  0  0
 23 24  1  0  0  0  0
 16 25  1  0  0  0  0
 26 25  1  0  0  0  0
 12 26  1  0  0  0  0
 26 27  1  6  0  0  0
 27 28  1  0  0  0  0
 27 29  1  0  0  0  0
 27 30  1  0  0  0  0
 11 31  1  0  0  0  0
  7 31  1  0  0  0  0
M  END
>  <CdId>
275

>  <Mol Weight>
466.43

>  <Formula>
C18H19F5N4O3S

>  <Molecule ChEMBL ID>
CHEMBL4646510

>  <Molecule Name>
COFROGLIPTIN

>  <Molecule Max Phase>
-1

>  <Molecular Weight>
466.43

>  <#RO5 Violations>
0

>  <AlogP>
2.07

>  <Compound Key>
2; Haisco HSK7653

>  <Standard Type>
IC50

>  <Standard Relation>
'>'

>  <Standard Value>
100000.0

>  <Standard Units>
nM

$$$$

  Mrv2114 03112311372D          

 34 38  0  0  1  0            999 V2000
    0.0000   -2.4750    0.0000 O   0  0  0  0  0  0  0  0  0  0  0  0
    0.0000   -1.6500    0.0000 C   0  0  0  0  0  0  0  0  0  0  0  0
   -0.7145   -1.2375    0.0000 N   0  0  0  0  0  0  0  0  0  0  0  0
   -1.4289   -1.6500    0.0000 C   0  0  0  0  0  0  0  0  0  0  0  0
   -1.4289   -2.4750    0.0000 C   0  0  0  0  0  0  0  0  0  0  0  0
   -2.1434   -2.8875    0.0000 N   0  0  0  0  0  0  0  0  0  0  0  0
   -2.8579   -2.4750    0.0000 C   0  0  0  0  0  0  0  0  0  0  0  0
   -3.5724   -2.8875    0.0000 O   0  0  0  0  0  0  0  0  0  0  0  0
   -4.2868   -2.4750    0.0000 C   0  0  0  0  0  0  0  0  0  0  0  0
   -5.0013   -2.8875    0.0000 C   0  0  0  0  0  0  0  0  0  0  0  0
   -5.7158   -2.4750    0.0000 C   0  0  0  0  0  0  0  0  0  0  0  0
   -5.7158   -1.6500    0.0000 C   0  0  0  0  0  0  0  0  0  0  0  0
   -6.4302   -1.2375    0.0000 F   0  0  0  0  0  0  0  0  0  0  0  0
   -5.0013   -1.2375    0.0000 C   0  0  0  0  0  0  0  0  0  0  0  0
   -4.2868   -1.6500    0.0000 C   0  0  0  0  0  0  0  0  0  0  0  0
   -2.8579   -1.6500    0.0000 N   0  0  0  0  0  0  0  0  0  0  0  0
   -2.1434   -1.2375    0.0000 C   0  0  0  0  0  0  0  0  0  0  0  0
    0.7145   -1.2375    0.0000 N   0  0  0  0  0  0  0  0  0  0  0  0
    0.7145   -0.4125    0.0000 C   0  0  0  0  0  0  0  0  0  0  0  0
    1.4289    0.0000    0.0000 C   0  0  0  0  0  0  0  0  0  0  0  0
    2.1434   -0.4125    0.0000 C   0  0  0  0  0  0  0  0  0  0  0  0
    2.8579    0.0000    0.0000 N   0  0  0  0  0  0  0  0  0  0  0  0
    3.5724   -0.4125    0.0000 C   0  0  0  0  0  0  0  0  0  0  0  0
    3.5724   -1.2375    0.0000 C   0  0  0  0  0  0  0  0  0  0  0  0
    2.8579   -1.6500    0.0000 C   0  0  0  0  0  0  0  0  0  0  0  0
    2.1434   -1.2375    0.0000 C   0  0  0  0  0  0  0  0  0  0  0  0
    1.4289   -1.6500    0.0000 C   0  0  2  0  0  0  0  0  0  0  0  0
    1.4289   -2.4750    0.0000 C   0  0  0  0  0  0  0  0  0  0  0  0
    2.1434   -2.8875    0.0000 C   0  0  0  0  0  0  0  0  0  0  0  0
    2.1434   -3.7125    0.0000 C   0  0  0  0  0  0  0  0  0  0  0  0
    1.4289   -4.1250    0.0000 C   0  0  0  0  0  0  0  0  0  0  0  0
    1.4289   -4.9500    0.0000 F   0  0  0  0  0  0  0  0  0  0  0  0
    0.7145   -3.7125    0.0000 C   0  0  0  0  0  0  0  0  0  0  0  0
    0.7145   -2.8875    0.0000 C   0  0  0  0  0  0  0  0  0  0  0  0
  1  2  2  0  0  0  0
  2  3  1  0  0  0  0
  3  4  1  0  0  0  0
  4  5  4  0  0  0  0
  5  6  4  0  0  0  0
  6  7  4  0  0  0  0
  7  8  1  0  0  0  0
  8  9  1  0  0  0  0
  9 10  4  0  0  0  0
 10 11  4  0  0  0  0
 11 12  4  0  0  0  0
 12 13  1  0  0  0  0
 12 14  4  0  0  0  0
 14 15  4  0  0  0  0
  9 15  4  0  0  0  0
  7 16  4  0  0  0  0
 16 17  4  0  0  0  0
  4 17  4  0  0  0  0
  2 18  1  0  0  0  0
 18 19  1  0  0  0  0
 19 20  1  0  0  0  0
 20 21  1  0  0  0  0
 21 22  4  0  0  0  0
 22 23  4  0  0  0  0
 23 24  4  0  0  0  0
 24 25  4  0  0  0  0
 25 26  4  0  0  0  0
 21 26  4  0  0  0  0
 27 26  1  0  0  0  0
 27 18  1  0  0  0  0
 27 28  1  6  0  0  0
 28 29  4  0  0  0  0
 29 30  4  0  0  0  0
 30 31  4  0  0  0  0
 31 32  1  0  0  0  0
 31 33  4  0  0  0  0
 33 34  4  0  0  0  0
 28 34  4  0  0  0  0
M  END
>  <CdId>
276

>  <Mol Weight>
459.457

>  <Formula>
C25H19F2N5O2

>  <Molecule ChEMBL ID>
CHEMBL4458424

>  <Molecule Name>
BAY-899

>  <Molecule Max Phase>
None

>  <Molecular Weight>
459.46

>  <#RO5 Violations>
1

>  <AlogP>
5.12

>  <Compound Key>
36; BAY-899

>  <Standard Type>
IC50

>  <Standard Relation>
'='

>  <Standard Value>
3100.0

>  <Standard Units>
nM

$$$$

  Mrv2114 03112311372D          

 17 18  0  0  0  0            999 V2000
    3.8795   -3.8616    0.0000 C   0  0  0  0  0  0  0  0  0  0  0  0
    4.5940   -3.4491    0.0000 C   0  0  0  0  0  0  0  0  0  0  0  0
    5.3084   -3.8616    0.0000 C   0  0  0  0  0  0  0  0  0  0  0  0
    6.0229   -3.4491    0.0000 C   0  0  0  0  0  0  0  0  0  0  0  0
    6.7374   -3.8616    0.0000 C   0  0  0  0  0  0  0  0  0  0  0  0
    7.4519   -3.4491    0.0000 S   0  0  0  0  0  0  0  0  0  0  0  0
    8.1663   -3.8616    0.0000 C   0  0  0  0  0  0  0  0  0  0  0  0
    8.9200   -3.5261    0.0000 N   0  0  0  0  0  0  0  0  0  0  0  0
    9.4720   -4.1392    0.0000 C   0  0  0  0  0  0  0  0  0  0  0  0
   10.2970   -4.1392    0.0000 C   0  0  0  0  0  0  0  0  0  0  0  0
   10.7095   -4.8536    0.0000 C   0  0  0  0  0  0  0  0  0  0  0  0
   11.5345   -4.8536    0.0000 O   0  0  0  0  0  0  0  0  0  0  0  0
   11.9470   -4.1392    0.0000 C   0  0  0  0  0  0  0  0  0  0  0  0
   10.2970   -5.5681    0.0000 C   0  0  0  0  0  0  0  0  0  0  0  0
    9.4720   -5.5681    0.0000 C   0  0  0  0  0  0  0  0  0  0  0  0
    9.0595   -4.8536    0.0000 C   0  0  0  0  0  0  0  0  0  0  0  0
    8.2526   -4.6821    0.0000 N   0  0  0  0  0  0  0  0  0  0  0  0
  1  2  1  0  0  0  0
  2  3  1  0  0  0  0
  3  4  1  0  0  0  0
  4  5  1  0  0  0  0
  5  6  1  0  0  0  0
  6  7  1  0  0  0  0
  7  8  4  0  0  0  0
  8  9  4  0  0  0  0
  9 10  4  0  0  0  0
 10 11  4  0  0  0  0
 11 12  1  0  0  0  0
 12 13  1  0  0  0  0
 11 14  4  0  0  0  0
 14 15  4  0  0  0  0
 15 16  4  0  0  0  0
  9 16  4  0  0  0  0
 16 17  4  0  0  0  0
  7 17  4  0  0  0  0
M  STY  1   1 DAT
M  SAL   1  1  17
M  SDT   1 MRV_IMPLICIT_H                                        
M  SDD   1     0.0000    0.0000    DR    ALL  0       0  
M  SED   1 IMPL_H1
M  END
>  <CdId>
277

>  <Mol Weight>
250.36

>  <Formula>
C13H18N2OS

>  <Molecule ChEMBL ID>
CHEMBL2018904

>  <Molecule Max Phase>
None

>  <Molecular Weight>
250.37

>  <#RO5 Violations>
0

>  <AlogP>
3.85

>  <Compound Key>
4

>  <Standard Type>
IC50

>  <Standard Relation>
'='

>  <Standard Value>
9640.0

>  <Standard Units>
nM

$$$$

  Mrv2114 03112311372D          

 28 30  0  0  1  0            999 V2000
   -2.1182    0.7009    0.0000 C   0  0  0  0  0  0  0  0  0  0  0  0
   -1.3645    0.3654    0.0000 C   0  0  0  0  0  0  0  0  0  0  0  0
   -0.6501    0.7779    0.0000 N   0  0  0  0  0  0  0  0  0  0  0  0
   -0.0370    0.2258    0.0000 C   0  0  0  0  0  0  0  0  0  0  0  0
    0.7700    0.3974    0.0000 C   0  0  0  0  0  0  0  0  0  0  0  0
    1.0249    1.1820    0.0000 C   0  0  0  0  0  0  0  0  0  0  0  0
    0.5400    1.8494    0.0000 C   0  0  0  0  0  0  0  0  0  0  0  0
   -0.2850    1.8494    0.0000 O   0  0  0  0  0  0  0  0  0  0  0  0
    1.0249    2.5169    0.0000 N   0  0  0  0  0  0  0  0  0  0  0  0
    1.8096    2.2619    0.0000 C   0  0  0  0  0  0  0  0  0  0  0  0
    2.5240    2.6744    0.0000 C   0  0  0  0  0  0  0  0  0  0  0  0
    3.2385    2.2619    0.0000 C   0  0  0  0  0  0  0  0  0  0  0  0
    3.2385    1.4369    0.0000 C   0  0  0  0  0  0  0  0  0  0  0  0
    3.9530    1.0244    0.0000 F   0  0  0  0  0  0  0  0  0  0  0  0
    2.5240    1.0244    0.0000 C   0  0  0  0  0  0  0  0  0  0  0  0
    1.8096    1.4369    0.0000 C   0  0  0  0  0  0  0  0  0  0  0  0
   -0.3725   -0.5278    0.0000 C   0  0  0  0  0  0  0  0  0  0  0  0
    0.0400   -1.2423    0.0000 C   0  0  0  0  0  0  0  0  0  0  0  0
   -1.1930   -0.4416    0.0000 C   0  0  0  0  0  0  0  0  0  0  0  0
   -1.7450   -1.0547    0.0000 N   0  0  0  0  0  0  0  0  0  0  0  0
   -1.4901   -1.8393    0.0000 C   0  0  0  0  0  0  0  0  0  0  0  0
   -0.6831   -2.0108    0.0000 O   0  0  0  0  0  0  0  0  0  0  0  0
   -2.0421   -2.4524    0.0000 C   0  0  1  0  0  0  0  0  0  0  0  0
   -1.8706   -3.2594    0.0000 C   0  0  0  0  0  0  0  0  0  0  0  0
   -2.5851   -3.6719    0.0000 C   0  0  0  0  0  0  0  0  0  0  0  0
   -3.1982   -3.1198    0.0000 C   0  0  0  0  0  0  0  0  0  0  0  0
   -2.8626   -2.3662    0.0000 N   0  0  0  0  0  0  0  0  0  0  0  0
    5.9566    0.0000    0.0000 Cl  0  0  0  0  0  0  0  0  0  0  0  0
  1  2  1  0  0  0  0
  2  3  4  0  0  0  0
  3  4  4  0  0  0  0
  5  4  1  4  0  0  0
  5  6  2  0  0  0  0
  6  7  1  0  0  0  0
  7  8  2  0  0  0  0
  7  9  1  0  0  0  0
  9 10  1  0  0  0  0
 10 11  4  0  0  0  0
 11 12  4  0  0  0  0
 12 13  4  0  0  0  0
 13 14  1  0  0  0  0
 13 15  4  0  0  0  0
 15 16  4  0  0  0  0
 10 16  4  0  0  0  0
  6 16  1  0  0  0  0
  4 17  4  0  0  0  0
 17 18  1  0  0  0  0
 17 19  4  0  0  0  0
  2 19  4  0  0  0  0
 19 20  1  0  0  0  0
 20 21  1  0  0  0  0
 21 22  2  0  0  0  0
 23 21  1  1  0  0  0
 23 24  1  0  0  0  0
 24 25  1  0  0  0  0
 25 26  1  0  0  0  0
 26 27  1  0  0  0  0
 23 27  1  0  0  0  0
M  STY  1   1 DAT
M  SAL   1  1   3
M  SDT   1 MRV_IMPLICIT_H                                        
M  SDD   1     0.0000    0.0000    DR    ALL  0       0  
M  SED   1 IMPL_H1
M  END
>  <CdId>
278

>  <Mol Weight>
404.87

>  <Formula>
C20H22ClFN4O2

>  <Molecule ChEMBL ID>
CHEMBL4093614

>  <Molecule Max Phase>
None

>  <Molecular Weight>
404.87

>  <#RO5 Violations>
0

>  <AlogP>
2.95

>  <Compound Key>
10d

>  <Standard Type>
IC50

>  <Standard Relation>
'>'

>  <Standard Value>
33000.0

>  <Standard Units>
nM

$$$$

  Mrv2114 03112311372D          

 24 27  0  0  0  0            999 V2000
    6.2102    1.9354    0.0000 C   0  0  0  0  0  0  0  0  0  0  0  0
    5.4957    2.3479    0.0000 C   0  0  0  0  0  0  0  0  0  0  0  0
    4.7812    1.9354    0.0000 C   0  0  0  0  0  0  0  0  0  0  0  0
    4.0668    2.3479    0.0000 C   0  0  0  0  0  0  0  0  0  0  0  0
    3.3523    1.9354    0.0000 C   0  0  0  0  0  0  0  0  0  0  0  0
    3.3523    1.1104    0.0000 C   0  0  0  0  0  0  0  0  0  0  0  0
    2.6378    0.6979    0.0000 N   0  0  0  0  0  0  0  0  0  0  0  0
    1.9233    1.1104    0.0000 C   0  0  0  0  0  0  0  0  0  0  0  0
    1.1387    0.8555    0.0000 C   0  0  0  0  0  0  0  0  0  0  0  0
    0.6538    1.5229    0.0000 C   0  0  0  0  0  0  0  0  0  0  0  0
    1.1387    2.1904    0.0000 N   0  0  0  0  0  0  0  0  0  0  0  0
    0.8838    2.9750    0.0000 C   0  0  0  0  0  0  0  0  0  0  0  0
    0.0768    3.1465    0.0000 C   0  0  0  0  0  0  0  0  0  0  0  0
   -0.4752    2.5334    0.0000 O   0  0  0  0  0  0  0  0  0  0  0  0
   -0.1781    3.9312    0.0000 N   0  0  0  0  0  0  0  0  0  0  0  0
   -0.9132    4.3057    0.0000 C   0  0  0  0  0  0  0  0  0  0  0  0
   -0.5387    5.0408    0.0000 C   0  0  0  0  0  0  0  0  0  0  0  0
    0.1964    4.6662    0.0000 C   0  0  0  0  0  0  0  0  0  0  0  0
    1.9233    1.9354    0.0000 C   0  0  0  0  0  0  0  0  0  0  0  0
    2.6378    2.3479    0.0000 C   0  0  0  0  0  0  0  0  0  0  0  0
    4.0668    3.1729    0.0000 C   0  0  0  0  0  0  0  0  0  0  0  0
    4.7812    3.5854    0.0000 C   0  0  0  0  0  0  0  0  0  0  0  0
    5.4957    3.1729    0.0000 C   0  0  0  0  0  0  0  0  0  0  0  0
    6.2102    3.5854    0.0000 F   0  0  0  0  0  0  0  0  0  0  0  0
  1  2  1  0  0  0  0
  2  3  4  0  0  0  0
  3  4  4  0  0  0  0
  4  5  1  0  0  0  0
  5  6  4  0  0  0  0
  6  7  4  0  0  0  0
  7  8  4  0  0  0  0
  8  9  4  0  0  0  0
  9 10  4  0  0  0  0
 10 11  4  0  0  0  0
 11 12  1  0  0  0  0
 12 13  1  0  0  0  0
 13 14  2  0  0  0  0
 13 15  1  0  0  0  0
 15 16  1  0  0  0  0
 16 17  1  0  0  0  0
 17 18  1  0  0  0  0
 15 18  1  0  0  0  0
 11 19  4  0  0  0  0
  8 19  4  0  0  0  0
 19 20  4  0  0  0  0
  5 20  4  0  0  0  0
  4 21  4  0  0  0  0
 21 22  4  0  0  0  0
 22 23  4  0  0  0  0
  2 23  4  0  0  0  0
 23 24  1  0  0  0  0
M  END
>  <CdId>
279

>  <Mol Weight>
323.371

>  <Formula>
C19H18FN3O

>  <Molecule ChEMBL ID>
CHEMBL4443868

>  <Molecule Max Phase>
None

>  <Molecular Weight>
323.37

>  <#RO5 Violations>
0

>  <AlogP>
3.38

>  <Compound Key>
5

>  <Standard Type>
IC50

>  <Standard Relation>
'>'

>  <Standard Value>
10000.0

>  <Standard Units>
nM

$$$$

  Mrv2114 03112311372D          

 34 38  0  0  1  0            999 V2000
    1.4289   -2.4750    0.0000 C   0  0  0  0  0  0  0  0  0  0  0  0
    1.4289   -1.6500    0.0000 C   0  0  0  0  0  0  0  0  0  0  0  0
    0.7145   -1.2375    0.0000 C   0  0  0  0  0  0  0  0  0  0  0  0
    0.0000   -1.6500    0.0000 C   0  0  0  0  0  0  0  0  0  0  0  0
    0.0000   -2.4750    0.0000 C   0  0  0  0  0  0  0  0  0  0  0  0
   -0.7145   -2.8875    0.0000 C   0  0  0  0  0  0  0  0  0  0  0  0
   -1.4289   -2.4750    0.0000 C   0  0  0  0  0  0  0  0  0  0  0  0
   -1.4289   -1.6500    0.0000 C   0  0  0  0  0  0  0  0  0  0  0  0
   -2.1434   -1.2375    0.0000 O   0  0  0  0  0  0  0  0  0  0  0  0
   -0.7145   -1.2375    0.0000 C   0  0  0  0  0  0  0  0  0  0  0  0
    0.7145   -0.4125    0.0000 C   0  0  2  0  0  0  0  0  0  0  0  0
    0.0000    0.0000    0.0000 C   0  0  0  0  0  0  0  0  0  0  0  0
   -0.7145   -0.4125    0.0000 C   0  0  0  0  0  0  0  0  0  0  0  0
   -1.4289    0.0000    0.0000 C   0  0  0  0  0  0  0  0  0  0  0  0
   -1.4289    0.8250    0.0000 C   0  0  0  0  0  0  0  0  0  0  0  0
   -2.1434    1.2375    0.0000 O   0  0  0  0  0  0  0  0  0  0  0  0
   -2.1434    2.0625    0.0000 C   0  0  0  0  0  0  0  0  0  0  0  0
   -2.8579    2.4750    0.0000 C   0  0  0  0  0  0  0  0  0  0  0  0
   -2.8579    3.3000    0.0000 N   0  0  0  0  0  0  0  0  0  0  0  0
   -3.4412    3.8834    0.0000 C   0  0  0  0  0  0  0  0  0  0  0  0
   -2.8579    4.4667    0.0000 C   0  0  0  0  0  0  0  0  0  0  0  0
   -2.8579    5.2917    0.0000 C   0  0  0  0  0  0  0  0  0  0  0  0
   -2.1434    5.7042    0.0000 F   0  0  0  0  0  0  0  0  0  0  0  0
   -2.2745    3.8834    0.0000 C   0  0  0  0  0  0  0  0  0  0  0  0
   -0.7145    1.2375    0.0000 C   0  0  0  0  0  0  0  0  0  0  0  0
    0.0000    0.8250    0.0000 C   0  0  0  0  0  0  0  0  0  0  0  0
    1.4289    0.0000    0.0000 O   0  0  0  0  0  0  0  0  0  0  0  0
    2.1434   -0.4125    0.0000 C   0  0  0  0  0  0  0  0  0  0  0  0
    2.8579    0.0000    0.0000 C   0  0  0  0  0  0  0  0  0  0  0  0
    3.5724   -0.4125    0.0000 C   0  0  0  0  0  0  0  0  0  0  0  0
    3.5724   -1.2375    0.0000 C   0  0  0  0  0  0  0  0  0  0  0  0
    4.2868   -1.6500    0.0000 O   0  0  0  0  0  0  0  0  0  0  0  0
    2.8579   -1.6500    0.0000 C   0  0  0  0  0  0  0  0  0  0  0  0
    2.1434   -1.2375    0.0000 C   0  0  0  0  0  0  0  0  0  0  0  0
  1  2  1  0  0  0  0
  2  3  2  0  0  0  0
  3  4  1  0  0  0  0
  4  5  4  0  0  0  0
  5  6  4  0  0  0  0
  6  7  4  0  0  0  0
  7  8  4  0  0  0  0
  8  9  1  0  0  0  0
  8 10  4  0  0  0  0
  4 10  4  0  0  0  0
 11  3  1  0  0  0  0
 11 12  1  6  0  0  0
 12 13  4  0  0  0  0
 13 14  4  0  0  0  0
 14 15  4  0  0  0  0
 15 16  1  0  0  0  0
 16 17  1  0  0  0  0
 17 18  1  0  0  0  0
 18 19  1  0  0  0  0
 19 20  1  0  0  0  0
 20 21  1  0  0  0  0
 21 22  1  0  0  0  0
 22 23  1  0  0  0  0
 21 24  1  0  0  0  0
 19 24  1  0  0  0  0
 15 25  4  0  0  0  0
 25 26  4  0  0  0  0
 12 26  4  0  0  0  0
 11 27  1  0  0  0  0
 27 28  1  0  0  0  0
 28 29  4  0  0  0  0
 29 30  4  0  0  0  0
 30 31  4  0  0  0  0
 31 32  1  0  0  0  0
 31 33  4  0  0  0  0
 33 34  4  0  0  0  0
 28 34  4  0  0  0  0
  2 34  1  0  0  0  0
M  END
>  <CdId>
280

>  <Mol Weight>
461.533

>  <Formula>
C28H28FNO4

>  <Molecule ChEMBL ID>
CHEMBL4447340

>  <Molecule Max Phase>
None

>  <Molecular Weight>
461.53

>  <#RO5 Violations>
1

>  <AlogP>
5.44

>  <Compound Key>
17ha; GDC-0927; SRN-927

>  <Standard Type>
IC50

>  <Standard Relation>
'='

>  <Standard Value>
3000.0

>  <Standard Units>
nM

$$$$

  Mrv2114 03112311372D          

 35 38  0  0  1  0            999 V2000
    0.7145   -4.5375    0.0000 N   0  0  0  0  0  0  0  0  0  0  0  0
    0.7145   -3.7125    0.0000 C   0  0  0  0  0  0  0  0  0  0  0  0
    0.7145   -2.8875    0.0000 C   0  0  0  0  0  0  0  0  0  0  0  0
    0.0000   -2.4750    0.0000 C   0  0  0  0  0  0  0  0  0  0  0  0
    0.0000   -1.6500    0.0000 C   0  0  0  0  0  0  0  0  0  0  0  0
    0.7145   -1.2375    0.0000 C   0  0  0  0  0  0  0  0  0  0  0  0
    0.7145   -0.4125    0.0000 C   0  0  2  0  0  0  0  0  0  0  0  0
   -0.0000   -0.0000    0.0000 C   0  0  0  0  0  0  0  0  0  0  0  0
   -0.0000    0.8250    0.0000 C   0  0  0  0  0  0  0  0  0  0  0  0
   -0.7846    1.0799    0.0000 C   0  0  0  0  0  0  0  0  0  0  0  0
   -1.2695    0.4125    0.0000 C   0  0  0  0  0  0  0  0  0  0  0  0
   -0.7846   -0.2549    0.0000 C   0  0  0  0  0  0  0  0  0  0  0  0
   -1.0396   -1.0396    0.0000 O   0  0  0  0  0  0  0  0  0  0  0  0
    0.7145    1.2375    0.0000 N   0  0  0  0  0  0  0  0  0  0  0  0
    0.7145    2.0625    0.0000 C   0  0  0  0  0  0  0  0  0  0  0  0
   -0.0000    2.4750    0.0000 C   0  0  0  0  0  0  0  0  0  0  0  0
   -0.0000    3.3000    0.0000 C   0  0  0  0  0  0  0  0  0  0  0  0
    0.7145    3.7125    0.0000 C   0  0  0  0  0  0  0  0  0  0  0  0
    1.4289    3.3000    0.0000 C   0  0  0  0  0  0  0  0  0  0  0  0
    2.1434    3.7125    0.0000 C   0  0  0  0  0  0  0  0  0  0  0  0
    2.8579    4.1250    0.0000 F   0  0  0  0  0  0  0  0  0  0  0  0
    2.5559    2.9980    0.0000 F   0  0  0  0  0  0  0  0  0  0  0  0
    1.7309    4.4270    0.0000 F   0  0  0  0  0  0  0  0  0  0  0  0
    1.4289    2.4750    0.0000 C   0  0  0  0  0  0  0  0  0  0  0  0
    1.4289    0.8250    0.0000 C   0  0  0  0  0  0  0  0  0  0  0  0
    2.1434    1.2375    0.0000 O   0  0  0  0  0  0  0  0  0  0  0  0
    1.4289    0.0000    0.0000 N   0  0  0  0  0  0  0  0  0  0  0  0
    2.1434   -0.4125    0.0000 C   0  0  0  0  0  0  0  0  0  0  0  0
    2.1434   -1.2375    0.0000 O   0  0  0  0  0  0  0  0  0  0  0  0
    2.8579    0.0000    0.0000 N   0  0  0  0  0  0  0  0  0  0  0  0
    3.5724   -0.4125    0.0000 C   0  0  0  0  0  0  0  0  0  0  0  0
    4.2868    0.0000    0.0000 C   0  0  0  0  0  0  0  0  0  0  0  0
    5.0013   -0.4125    0.0000 O   0  0  0  0  0  0  0  0  0  0  0  0
    1.4289   -1.6500    0.0000 C   0  0  0  0  0  0  0  0  0  0  0  0
    1.4289   -2.4750    0.0000 C   0  0  0  0  0  0  0  0  0  0  0  0
  1  2  3  0  0  0  0
  2  3  1  0  0  0  0
  3  4  4  0  0  0  0
  4  5  4  0  0  0  0
  5  6  4  0  0  0  0
  7  6  1  6  0  0  0
  7  8  1  0  0  0  0
  8  9  2  0  0  0  0
  9 10  1  0  0  0  0
 10 11  1  0  0  0  0
 11 12  1  0  0  0  0
  8 12  1  0  0  0  0
 12 13  2  0  0  0  0
  9 14  1  0  0  0  0
 14 15  1  0  0  0  0
 15 16  4  0  0  0  0
 16 17  4  0  0  0  0
 17 18  4  0  0  0  0
 18 19  4  0  0  0  0
 19 20  1  0  0  0  0
 20 21  1  0  0  0  0
 20 22  1  0  0  0  0
 20 23  1  0  0  0  0
 19 24  4  0  0  0  0
 15 24  4  0  0  0  0
 14 25  1  0  0  0  0
 25 26  2  0  0  0  0
 25 27  1  0  0  0  0
  7 27  1  0  0  0  0
 27 28  1  0  0  0  0
 28 29  2  0  0  0  0
 28 30  1  0  0  0  0
 30 31  1  0  0  0  0
 31 32  1  0  0  0  0
 32 33  1  0  0  0  0
  6 34  4  0  0  0  0
 34 35  4  0  0  0  0
  3 35  4  0  0  0  0
M  END
>  <CdId>
281

>  <Mol Weight>
484.435

>  <Formula>
C24H19F3N4O4

>  <Molecule ChEMBL ID>
CHEMBL4111285

>  <Molecule Max Phase>
None

>  <Molecular Weight>
484.43

>  <#RO5 Violations>
0

>  <AlogP>
3.88

>  <Compound Key>
BDBM211750

>  <Standard Type>
IC50

>  <Standard Relation>
'>'

>  <Standard Value>
50000.0

>  <Standard Units>
nM

$$$$

  Mrv2114 03112311372D          

 43 48  0  0  1  0            999 V2000
   -3.5724   -7.0125    0.0000 C   0  0  0  0  0  0  0  0  0  0  0  0
   -3.5724   -6.1875    0.0000 N   0  0  0  0  0  0  0  0  0  0  0  0
   -2.8579   -5.7750    0.0000 C   0  0  1  0  0  0  0  0  0  0  0  0
   -2.1434   -6.1875    0.0000 C   0  0  0  0  0  0  0  0  0  0  0  0
   -2.8579   -4.9500    0.0000 C   0  0  0  0  0  0  0  0  0  0  0  0
   -3.5724   -4.5375    0.0000 O   0  0  0  0  0  0  0  0  0  0  0  0
   -2.1434   -4.5375    0.0000 N   0  0  0  0  0  0  0  0  0  0  0  0
   -2.1434   -3.7125    0.0000 C   0  0  0  0  0  0  0  0  0  0  0  0
   -2.8579   -3.3000    0.0000 C   0  0  0  0  0  0  0  0  0  0  0  0
   -2.8579   -2.4750    0.0000 C   0  0  0  0  0  0  0  0  0  0  0  0
   -2.1434   -2.0625    0.0000 C   0  0  0  0  0  0  0  0  0  0  0  0
   -2.1434   -1.2375    0.0000 C   0  0  0  0  0  0  0  0  0  0  0  0
   -2.8109   -0.7526    0.0000 C   0  0  0  0  0  0  0  0  0  0  0  0
   -3.5955   -1.0075    0.0000 C   0  0  0  0  0  0  0  0  0  0  0  0
   -3.7670   -1.8145    0.0000 C   0  0  0  0  0  0  0  0  0  0  0  0
   -4.5516   -2.0694    0.0000 C   0  0  0  0  0  0  0  0  0  0  0  0
   -5.1647   -1.5174    0.0000 C   0  0  0  0  0  0  0  0  0  0  0  0
   -4.9932   -0.7104    0.0000 N   0  0  0  0  0  0  0  0  0  0  0  0
   -4.2086   -0.4555    0.0000 C   0  0  0  0  0  0  0  0  0  0  0  0
   -4.0370    0.3515    0.0000 C   0  0  0  0  0  0  0  0  0  0  0  0
   -2.5559    0.0320    0.0000 N   0  0  0  0  0  0  0  0  0  0  0  0
   -1.7309    0.0320    0.0000 C   0  0  0  0  0  0  0  0  0  0  0  0
   -1.1789    0.6451    0.0000 C   0  0  0  0  0  0  0  0  0  0  0  0
   -0.3719    0.4736    0.0000 C   0  0  0  0  0  0  0  0  0  0  0  0
    0.1801    1.0867    0.0000 C   0  0  0  0  0  0  0  0  0  0  0  0
   -0.1170   -0.3110    0.0000 C   0  0  0  0  0  0  0  0  0  0  0  0
   -0.6690   -0.9241    0.0000 C   0  0  0  0  0  0  0  0  0  0  0  0
   -1.4760   -0.7526    0.0000 N   0  0  0  0  0  0  0  0  0  0  0  0
   -1.4289   -2.4750    0.0000 C   0  0  0  0  0  0  0  0  0  0  0  0
   -0.7145   -2.0625    0.0000 C   0  0  0  0  0  0  0  0  0  0  0  0
    0.0000   -1.6500    0.0000 C   0  0  0  0  0  0  0  0  0  0  0  0
    0.7145   -1.2375    0.0000 C   0  0  0  0  0  0  0  0  0  0  0  0
    0.7145   -0.4125    0.0000 C   0  0  0  0  0  0  0  0  0  0  0  0
    1.4289    0.0000    0.0000 C   0  0  0  0  0  0  0  0  0  0  0  0
    2.1434   -0.4125    0.0000 C   0  0  0  0  0  0  0  0  0  0  0  0
    2.8579    0.0000    0.0000 C   0  0  0  0  0  0  0  0  0  0  0  0
    2.8579    0.8250    0.0000 C   0  0  0  0  0  0  0  0  0  0  0  0
    3.5724   -0.4125    0.0000 N   0  0  0  0  0  0  0  0  0  0  0  0
    3.5724   -1.2375    0.0000 C   0  0  0  0  0  0  0  0  0  0  0  0
    2.8579   -1.6500    0.0000 C   0  0  0  0  0  0  0  0  0  0  0  0
    2.1434   -1.2375    0.0000 C   0  0  0  0  0  0  0  0  0  0  0  0
    1.4289   -1.6500    0.0000 C   0  0  0  0  0  0  0  0  0  0  0  0
   -1.4289   -3.3000    0.0000 N   0  0  0  0  0  0  0  0  0  0  0  0
  1  2  1  0  0  0  0
  3  2  1  0  0  0  0
  3  4  1  6  0  0  0
  3  5  1  0  0  0  0
  5  6  2  0  0  0  0
  5  7  1  0  0  0  0
  7  8  1  0  0  0  0
  8  9  4  0  0  0  0
  9 10  4  0  0  0  0
 10 11  4  0  0  0  0
 11 12  1  0  0  0  0
 12 13  4  0  0  0  0
 13 14  1  0  0  0  0
 14 15  4  0  0  0  0
 15 16  4  0  0  0  0
 16 17  4  0  0  0  0
 17 18  4  0  0  0  0
 18 19  4  0  0  0  0
 14 19  4  0  0  0  0
 19 20  1  0  0  0  0
 13 21  4  0  0  0  0
 21 22  4  0  0  0  0
 22 23  4  0  0  0  0
 23 24  4  0  0  0  0
 24 25  1  0  0  0  0
 24 26  4  0  0  0  0
 26 27  4  0  0  0  0
 27 28  4  0  0  0  0
 12 28  4  0  0  0  0
 22 28  4  0  0  0  0
 11 29  4  0  0  0  0
 29 30  1  0  0  0  0
 30 31  3  0  0  0  0
 31 32  1  0  0  0  0
 32 33  4  0  0  0  0
 33 34  4  0  0  0  0
 34 35  4  0  0  0  0
 35 36  4  0  0  0  0
 36 37  1  0  0  0  0
 36 38  4  0  0  0  0
 38 39  4  0  0  0  0
 39 40  4  0  0  0  0
 40 41  4  0  0  0  0
 35 41  4  0  0  0  0
 41 42  4  0  0  0  0
 32 42  4  0  0  0  0
 29 43  4  0  0  0  0
  8 43  4  0  0  0  0
M  END
>  <CdId>
282

>  <Mol Weight>
565.681

>  <Formula>
C35H31N7O

>  <Molecule ChEMBL ID>
CHEMBL3973040

>  <Molecule Max Phase>
None

>  <Molecular Weight>
565.68

>  <#RO5 Violations>
2

>  <AlogP>
5.88

>  <Compound Key>
BDBM253995

>  <Standard Type>
IC50

>  <Standard Relation>
'='

>  <Standard Value>
1300.0

>  <Standard Units>
nM

$$$$

  Mrv2114 03112311372D          

 45 50  0  0  1  0            999 V2000
   -7.8592    0.4125    0.0000 C   0  0  0  0  0  0  0  0  0  0  0  0
   -7.1447    0.8250    0.0000 N   0  0  0  0  0  0  0  0  0  0  0  0
   -6.4302    0.4125    0.0000 C   0  0  1  0  0  0  0  0  0  0  0  0
   -6.4302   -0.4125    0.0000 C   0  0  0  0  0  0  0  0  0  0  0  0
   -5.7158    0.8250    0.0000 C   0  0  0  0  0  0  0  0  0  0  0  0
   -5.7158    1.6500    0.0000 O   0  0  0  0  0  0  0  0  0  0  0  0
   -5.0013    0.4125    0.0000 N   0  0  0  0  0  0  0  0  0  0  0  0
   -4.2868    0.8250    0.0000 C   0  0  0  0  0  0  0  0  0  0  0  0
   -4.2868    1.6500    0.0000 C   0  0  0  0  0  0  0  0  0  0  0  0
   -3.5724    2.0625    0.0000 C   0  0  0  0  0  0  0  0  0  0  0  0
   -2.8579    1.6500    0.0000 C   0  0  0  0  0  0  0  0  0  0  0  0
   -2.1434    2.0625    0.0000 C   0  0  0  0  0  0  0  0  0  0  0  0
   -2.0572    2.8830    0.0000 C   0  0  0  0  0  0  0  0  0  0  0  0
   -2.6703    3.4350    0.0000 C   0  0  0  0  0  0  0  0  0  0  0  0
   -3.4549    3.1801    0.0000 C   0  0  0  0  0  0  0  0  0  0  0  0
   -4.0680    3.7321    0.0000 C   0  0  0  0  0  0  0  0  0  0  0  0
   -3.8965    4.5391    0.0000 C   0  0  0  0  0  0  0  0  0  0  0  0
   -3.1118    4.7940    0.0000 N   0  0  0  0  0  0  0  0  0  0  0  0
   -2.4987    4.2420    0.0000 C   0  0  0  0  0  0  0  0  0  0  0  0
   -1.7141    4.4969    0.0000 O   0  0  0  0  0  0  0  0  0  0  0  0
   -1.1010    3.9449    0.0000 C   0  0  0  0  0  0  0  0  0  0  0  0
   -1.2502    3.0545    0.0000 N   0  0  0  0  0  0  0  0  0  0  0  0
   -0.8377    2.3400    0.0000 C   0  0  0  0  0  0  0  0  0  0  0  0
   -0.0307    2.1685    0.0000 C   0  0  0  0  0  0  0  0  0  0  0  0
    0.2242    1.3839    0.0000 C   0  0  0  0  0  0  0  0  0  0  0  0
    1.0312    1.2124    0.0000 C   0  0  0  0  0  0  0  0  0  0  0  0
   -0.3278    0.7708    0.0000 C   0  0  0  0  0  0  0  0  0  0  0  0
   -1.1348    0.9423    0.0000 C   0  0  0  0  0  0  0  0  0  0  0  0
   -1.3897    1.7269    0.0000 N   0  0  0  0  0  0  0  0  0  0  0  0
   -2.8579    0.8250    0.0000 C   0  0  0  0  0  0  0  0  0  0  0  0
   -2.1434    0.4125    0.0000 C   0  0  0  0  0  0  0  0  0  0  0  0
   -1.4289    0.0000    0.0000 C   0  0  0  0  0  0  0  0  0  0  0  0
   -0.7145   -0.4125    0.0000 C   0  0  0  0  0  0  0  0  0  0  0  0
   -0.7145   -1.2375    0.0000 C   0  0  0  0  0  0  0  0  0  0  0  0
    0.0000   -1.6500    0.0000 C   0  0  0  0  0  0  0  0  0  0  0  0
    0.7145   -1.2375    0.0000 C   0  0  0  0  0  0  0  0  0  0  0  0
    0.7145   -0.4125    0.0000 C   0  0  0  0  0  0  0  0  0  0  0  0
    1.4289   -0.0000    0.0000 C   0  0  0  0  0  0  0  0  0  0  0  0
    2.1434   -0.4125    0.0000 C   0  0  0  0  0  0  0  0  0  0  0  0
    2.1434   -1.2375    0.0000 C   0  0  0  0  0  0  0  0  0  0  0  0
    2.8579   -1.6500    0.0000 O   0  0  0  0  0  0  0  0  0  0  0  0
    1.4289   -1.6500    0.0000 N   0  0  0  0  0  0  0  0  0  0  0  0
    1.4289   -2.4750    0.0000 C   0  0  0  0  0  0  0  0  0  0  0  0
    0.0000   -0.0000    0.0000 C   0  0  0  0  0  0  0  0  0  0  0  0
   -3.5724    0.4125    0.0000 N   0  0  0  0  0  0  0  0  0  0  0  0
  1  2  1  0  0  0  0
  3  2  1  0  0  0  0
  3  4  1  6  0  0  0
  3  5  1  0  0  0  0
  5  6  2  0  0  0  0
  5  7  1  0  0  0  0
  7  8  1  0  0  0  0
  8  9  4  0  0  0  0
  9 10  4  0  0  0  0
 10 11  4  0  0  0  0
 11 12  1  0  0  0  0
 12 13  4  0  0  0  0
 13 14  1  0  0  0  0
 14 15  4  0  0  0  0
 15 16  4  0  0  0  0
 16 17  4  0  0  0  0
 17 18  4  0  0  0  0
 18 19  4  0  0  0  0
 14 19  4  0  0  0  0
 19 20  1  0  0  0  0
 20 21  1  0  0  0  0
 13 22  4  0  0  0  0
 22 23  4  0  0  0  0
 23 24  4  0  0  0  0
 24 25  4  0  0  0  0
 25 26  1  0  0  0  0
 25 27  4  0  0  0  0
 27 28  4  0  0  0  0
 28 29  4  0  0  0  0
 12 29  4  0  0  0  0
 23 29  4  0  0  0  0
 11 30  4  0  0  0  0
 30 31  1  0  0  0  0
 31 32  3  0  0  0  0
 32 33  1  0  0  0  0
 33 34  4  0  0  0  0
 34 35  4  0  0  0  0
 35 36  4  0  0  0  0
 36 37  4  0  0  0  0
 37 38  4  0  0  0  0
 38 39  4  0  0  0  0
 39 40  4  0  0  0  0
 40 41  2  0  0  0  0
 40 42  4  0  0  0  0
 36 42  4  0  0  0  0
 42 43  1  0  0  0  0
 37 44  4  0  0  0  0
 33 44  4  0  0  0  0
 30 45  4  0  0  0  0
  8 45  4  0  0  0  0
M  END
>  <CdId>
283

>  <Mol Weight>
597.679

>  <Formula>
C35H31N7O3

>  <Molecule ChEMBL ID>
CHEMBL3930510

>  <Molecule Max Phase>
None

>  <Molecular Weight>
597.68

>  <#RO5 Violations>
1

>  <AlogP>
4.57

>  <Compound Key>
BDBM254000

>  <Standard Type>
IC50

>  <Standard Relation>
'='

>  <Standard Value>
9300.0

>  <Standard Units>
nM

$$$$

  Mrv2114 03112311372D          

 31 35  0  0  1  0            999 V2000
   -1.6382   -3.9864    0.0000 O   0  0  0  0  0  0  0  0  0  0  0  0
   -0.8619   -4.2657    0.0000 C   0  0  0  0  0  0  0  0  0  0  0  0
   -0.2319   -3.7331    0.0000 N   0  0  0  0  0  0  0  0  0  0  0  0
   -0.3781   -2.9211    0.0000 C   0  0  0  0  0  0  0  0  0  0  0  0
    0.2519   -2.3885    0.0000 C   0  0  2  0  0  0  0  0  0  0  0  0
    0.1913   -1.5657    0.0000 O   0  0  0  0  0  0  0  0  0  0  0  0
    0.9551   -1.2539    0.0000 C   0  0  0  0  0  0  0  0  0  0  0  0
    1.1517   -0.4527    0.0000 O   0  0  0  0  0  0  0  0  0  0  0  0
    1.4877   -1.8839    0.0000 N   0  0  0  0  0  0  0  0  0  0  0  0
    2.3123   -1.9097    0.0000 C   0  0  0  0  0  0  0  0  0  0  0  0
    2.7469   -1.2084    0.0000 C   0  0  0  0  0  0  0  0  0  0  0  0
    3.5715   -1.2342    0.0000 C   0  0  0  0  0  0  0  0  0  0  0  0
    3.9615   -1.9612    0.0000 C   0  0  0  0  0  0  0  0  0  0  0  0
    4.7861   -1.9870    0.0000 N   0  0  0  0  0  0  0  0  0  0  0  0
    5.2207   -1.2857    0.0000 C   0  0  0  0  0  0  0  0  0  0  0  0
    6.0453   -1.3115    0.0000 C   0  0  0  0  0  0  0  0  0  0  0  0
    6.4353   -2.0385    0.0000 O   0  0  0  0  0  0  0  0  0  0  0  0
    6.0007   -2.7397    0.0000 C   0  0  0  0  0  0  0  0  0  0  0  0
    5.1761   -2.7140    0.0000 C   0  0  0  0  0  0  0  0  0  0  0  0
    4.7415   -3.4152    0.0000 O   0  0  0  0  0  0  0  0  0  0  0  0
    3.5269   -2.6624    0.0000 C   0  0  0  0  0  0  0  0  0  0  0  0
    2.7023   -2.6367    0.0000 C   0  0  0  0  0  0  0  0  0  0  0  0
    2.2677   -3.3379    0.0000 O   0  0  0  0  0  0  0  0  0  0  0  0
    1.4431   -3.3122    0.0000 C   0  0  0  0  0  0  0  0  0  0  0  0
    1.0531   -2.5852    0.0000 C   0  0  1  0  0  0  0  0  0  0  0  0
   -0.7157   -5.0776    0.0000 C   0  0  0  0  0  0  0  0  0  0  0  0
    0.0271   -5.4365    0.0000 C   0  0  0  0  0  0  0  0  0  0  0  0
   -0.0847   -6.2539    0.0000 C   0  0  0  0  0  0  0  0  0  0  0  0
   -0.8966   -6.4002    0.0000 C   0  0  0  0  0  0  0  0  0  0  0  0
   -1.2555   -7.1430    0.0000 Cl  0  0  0  0  0  0  0  0  0  0  0  0
   -1.2866   -5.6732    0.0000 S   0  0  0  0  0  0  0  0  0  0  0  0
  1  2  2  0  0  0  0
  2  3  1  0  0  0  0
  3  4  1  0  0  0  0
  5  4  1  6  0  0  0
  5  6  1  0  0  0  0
  6  7  1  0  0  0  0
  7  8  2  0  0  0  0
  7  9  1  0  0  0  0
  9 10  1  0  0  0  0
 10 11  4  0  0  0  0
 11 12  4  0  0  0  0
 12 13  4  0  0  0  0
 13 14  1  0  0  0  0
 14 15  1  0  0  0  0
 15 16  1  0  0  0  0
 16 17  1  0  0  0  0
 17 18  1  0  0  0  0
 18 19  1  0  0  0  0
 14 19  1  0  0  0  0
 19 20  2  0  0  0  0
 13 21  4  0  0  0  0
 21 22  4  0  0  0  0
 10 22  4  0  0  0  0
 22 23  1  0  0  0  0
 23 24  1  0  0  0  0
 25 24  1  0  0  0  0
  5 25  1  0  0  0  0
 25  9  1  1  0  0  0
  2 26  1  0  0  0  0
 26 27  4  0  0  0  0
 27 28  4  0  0  0  0
 28 29  4  0  0  0  0
 29 30  1  0  0  0  0
 29 31  4  0  0  0  0
 26 31  4  0  0  0  0
M  END
>  <CdId>
284

>  <Mol Weight>
463.89

>  <Formula>
C20H18ClN3O6S

>  <Molecule ChEMBL ID>
CHEMBL3330442

>  <Molecule Max Phase>
None

>  <Molecular Weight>
463.9

>  <#RO5 Violations>
0

>  <AlogP>
2.28

>  <Compound Key>
11a

>  <Standard Type>
IC50

>  <Standard Relation>
'='

>  <Standard Value>
99730.0

>  <Standard Units>
nM

$$$$

  Mrv2114 03112311372D          

 44 48  0  0  1  0            999 V2000
   -0.2319   -3.7331    0.0000 O   0  0  0  0  0  0  0  0  0  0  0  0
   -0.3781   -2.9211    0.0000 C   0  0  0  0  0  0  0  0  0  0  0  0
    0.2519   -2.3885    0.0000 N   0  0  0  0  0  0  0  0  0  0  0  0
    0.1913   -1.5657    0.0000 C   0  0  0  0  0  0  0  0  0  0  0  0
    0.9551   -1.2539    0.0000 C   0  0  0  0  0  0  0  0  0  0  0  0
    1.4877   -1.8839    0.0000 C   0  0  1  0  0  0  0  0  0  0  0  0
    1.8467   -1.1411    0.0000 S   0  0  0  0  0  0  0  0  0  0  0  0
    2.5737   -0.7511    0.0000 O   0  0  0  0  0  0  0  0  0  0  0  0
    1.1038   -0.7822    0.0000 O   0  0  0  0  0  0  0  0  0  0  0  0
    2.2056   -0.3983    0.0000 C   0  0  0  0  0  0  0  0  0  0  0  0
    1.7417    0.2840    0.0000 C   0  0  0  0  0  0  0  0  0  0  0  0
    2.1007    1.0268    0.0000 C   0  0  0  0  0  0  0  0  0  0  0  0
    2.9234    1.0874    0.0000 C   0  0  0  0  0  0  0  0  0  0  0  0
    3.2824    1.8302    0.0000 F   0  0  0  0  0  0  0  0  0  0  0  0
    3.3873    0.4051    0.0000 C   0  0  0  0  0  0  0  0  0  0  0  0
    3.0284   -0.3377    0.0000 C   0  0  0  0  0  0  0  0  0  0  0  0
    2.3123   -1.9097    0.0000 C   0  0  0  0  0  0  0  0  0  0  0  0
    2.7469   -1.2084    0.0000 C   0  0  0  0  0  0  0  0  0  0  0  0
    3.5715   -1.2342    0.0000 C   0  0  0  0  0  0  0  0  0  0  0  0
    3.9615   -1.9612    0.0000 C   0  0  0  0  0  0  0  0  0  0  0  0
    4.7861   -1.9870    0.0000 C   0  0  0  0  0  0  0  0  0  0  0  0
    4.8119   -1.1624    0.0000 F   0  0  0  0  0  0  0  0  0  0  0  0
    4.7603   -2.8116    0.0000 C   0  0  0  0  0  0  0  0  0  0  0  0
    4.7346   -3.6362    0.0000 F   0  0  0  0  0  0  0  0  0  0  0  0
    5.5849   -2.8373    0.0000 F   0  0  0  0  0  0  0  0  0  0  0  0
    3.9358   -2.7858    0.0000 F   0  0  0  0  0  0  0  0  0  0  0  0
    5.6107   -2.0127    0.0000 C   0  0  0  0  0  0  0  0  0  0  0  0
    6.4353   -2.0385    0.0000 F   0  0  0  0  0  0  0  0  0  0  0  0
    6.0746   -2.6950    0.0000 F   0  0  0  0  0  0  0  0  0  0  0  0
    5.6365   -1.1881    0.0000 F   0  0  0  0  0  0  0  0  0  0  0  0
    3.5269   -2.6624    0.0000 C   0  0  0  0  0  0  0  0  0  0  0  0
    2.7023   -2.6367    0.0000 C   0  0  0  0  0  0  0  0  0  0  0  0
    2.2677   -3.3379    0.0000 C   0  0  0  0  0  0  0  0  0  0  0  0
    1.4431   -3.3122    0.0000 C   0  0  0  0  0  0  0  0  0  0  0  0
    1.0531   -2.5852    0.0000 C   0  0  1  0  0  0  0  0  0  0  0  0
   -1.1544   -2.6418    0.0000 C   0  0  0  0  0  0  0  0  0  0  0  0
   -0.7446   -1.9258    0.0000 O   0  0  0  0  0  0  0  0  0  0  0  0
   -1.2947   -3.4548    0.0000 C   0  0  0  0  0  0  0  0  0  0  0  0
   -2.0689   -3.7398    0.0000 C   0  0  0  0  0  0  0  0  0  0  0  0
   -2.7028   -3.2118    0.0000 S   0  0  0  0  0  0  0  0  0  0  0  0
   -3.1127   -3.9278    0.0000 O   0  0  0  0  0  0  0  0  0  0  0  0
   -3.4791   -2.9325    0.0000 O   0  0  0  0  0  0  0  0  0  0  0  0
   -2.5626   -2.3989    0.0000 C   0  0  0  0  0  0  0  0  0  0  0  0
   -1.7884   -2.1138    0.0000 C   0  0  0  0  0  0  0  0  0  0  0  0
  1  2  2  0  0  0  0
  2  3  1  0  0  0  0
  3  4  1  0  0  0  0
  4  5  1  0  0  0  0
  6  5  1  0  0  0  0
  6  7  1  6  0  0  0
  7  8  2  0  0  0  0
  7  9  2  0  0  0  0
  7 10  1  0  0  0  0
 10 11  4  0  0  0  0
 11 12  4  0  0  0  0
 12 13  4  0  0  0  0
 13 14  1  0  0  0  0
 13 15  4  0  0  0  0
 15 16  4  0  0  0  0
 10 16  4  0  0  0  0
  6 17  1  0  0  0  0
 17 18  4  0  0  0  0
 18 19  4  0  0  0  0
 19 20  4  0  0  0  0
 20 21  1  0  0  0  0
 21 22  1  0  0  0  0
 21 23  1  0  0  0  0
 23 24  1  0  0  0  0
 23 25  1  0  0  0  0
 23 26  1  0  0  0  0
 21 27  1  0  0  0  0
 27 28  1  0  0  0  0
 27 29  1  0  0  0  0
 27 30  1  0  0  0  0
 20 31  4  0  0  0  0
 31 32  4  0  0  0  0
 17 32  4  0  0  0  0
 32 33  1  0  0  0  0
 33 34  1  0  0  0  0
 35 34  1  0  0  0  0
 35  3  1  1  0  0  0
  6 35  1  0  0  0  0
  2 36  1  0  0  0  0
 36 37  1  0  0  0  0
 36 38  1  0  0  0  0
 38 39  1  0  0  0  0
 39 40  1  0  0  0  0
 40 41  2  0  0  0  0
 40 42  2  0  0  0  0
 40 43  1  0  0  0  0
 43 44  1  0  0  0  0
 36 44  1  0  0  0  0
M  END
>  <CdId>
285

>  <Mol Weight>
675.61

>  <Formula>
C27H25F8NO6S2

>  <Molecule ChEMBL ID>
CHEMBL4463581

>  <Molecule Max Phase>
None

>  <Molecular Weight>
675.62

>  <#RO5 Violations>
1

>  <AlogP>
4.27

>  <Compound Key>
32

>  <Standard Type>
IC50

>  <Standard Relation>
'='

>  <Standard Value>
15000.0

>  <Standard Units>
nM

$$$$

  Mrv2114 03112311372D          

 29 32  0  0  1  0            999 V2000
    3.2789    5.3625    0.0000 N   0  0  0  0  0  0  0  0  0  0  0  0
    3.2789    4.5375    0.0000 C   0  0  0  0  0  0  0  0  0  0  0  0
    3.2789    3.7125    0.0000 C   0  0  0  0  0  0  0  0  0  0  0  0
    3.9934    3.3000    0.0000 C   0  0  0  0  0  0  0  0  0  0  0  0
    3.9934    2.4750    0.0000 C   0  0  0  0  0  0  0  0  0  0  0  0
    3.2789    2.0625    0.0000 C   0  0  0  0  0  0  0  0  0  0  0  0
    3.2789    1.2375    0.0000 C   0  0  1  0  0  0  0  0  0  0  0  0
    3.9934    0.8250    0.0000 N   0  0  0  0  0  0  0  0  0  0  0  0
    3.9934    0.0000    0.0000 C   0  0  0  0  0  0  0  0  0  0  0  0
    4.7079   -0.4125    0.0000 O   0  0  0  0  0  0  0  0  0  0  0  0
    3.2789   -0.4125    0.0000 N   0  0  0  0  0  0  0  0  0  0  0  0
    3.2789   -1.2375    0.0000 C   0  0  0  0  0  0  0  0  0  0  0  0
    3.9934   -1.6500    0.0000 C   0  0  0  0  0  0  0  0  0  0  0  0
    3.9934   -2.4750    0.0000 C   0  0  0  0  0  0  0  0  0  0  0  0
    3.2789   -2.8875    0.0000 C   0  0  0  0  0  0  0  0  0  0  0  0
    2.5645   -2.4750    0.0000 C   0  0  0  0  0  0  0  0  0  0  0  0
    1.8500   -2.8875    0.0000 C   0  0  0  0  0  0  0  0  0  0  0  0
    1.1355   -3.3000    0.0000 F   0  0  0  0  0  0  0  0  0  0  0  0
    1.4375   -2.1730    0.0000 F   0  0  0  0  0  0  0  0  0  0  0  0
    2.2625   -3.6020    0.0000 F   0  0  0  0  0  0  0  0  0  0  0  0
    2.5645   -1.6500    0.0000 C   0  0  0  0  0  0  0  0  0  0  0  0
    2.5645    0.0000    0.0000 C   0  0  0  0  0  0  0  0  0  0  0  0
    2.5645    0.8250    0.0000 C   0  0  0  0  0  0  0  0  0  0  0  0
    1.7798    1.0799    0.0000 C   0  0  0  0  0  0  0  0  0  0  0  0
    1.5249    1.8646    0.0000 O   0  0  0  0  0  0  0  0  0  0  0  0
    1.2949    0.4125    0.0000 C   0  0  0  0  0  0  0  0  0  0  0  0
    1.7798   -0.2549    0.0000 C   0  0  0  0  0  0  0  0  0  0  0  0
    2.5645    2.4750    0.0000 C   0  0  0  0  0  0  0  0  0  0  0  0
    2.5645    3.3000    0.0000 C   0  0  0  0  0  0  0  0  0  0  0  0
  1  2  3  0  0  0  0
  2  3  1  0  0  0  0
  3  4  4  0  0  0  0
  4  5  4  0  0  0  0
  5  6  4  0  0  0  0
  7  6  1  1  0  0  0
  7  8  1  0  0  0  0
  8  9  1  0  0  0  0
  9 10  2  0  0  0  0
  9 11  1  0  0  0  0
 11 12  1  0  0  0  0
 12 13  4  0  0  0  0
 13 14  4  0  0  0  0
 14 15  4  0  0  0  0
 15 16  4  0  0  0  0
 16 17  1  0  0  0  0
 17 18  1  0  0  0  0
 17 19  1  0  0  0  0
 17 20  1  0  0  0  0
 16 21  4  0  0  0  0
 12 21  4  0  0  0  0
 11 22  1  0  0  0  0
 22 23  2  0  0  0  0
  7 23  1  0  0  0  0
 23 24  1  0  0  0  0
 24 25  2  0  0  0  0
 24 26  1  0  0  0  0
 26 27  1  0  0  0  0
 22 27  1  0  0  0  0
  6 28  4  0  0  0  0
 28 29  4  0  0  0  0
  3 29  4  0  0  0  0
M  END
>  <CdId>
286

>  <Mol Weight>
397.357

>  <Formula>
C21H14F3N3O2

>  <Molecule ChEMBL ID>
CHEMBL3617971

>  <Molecule Max Phase>
None

>  <Molecular Weight>
397.36

>  <#RO5 Violations>
0

>  <AlogP>
4.46

>  <Compound Key>
BDBM50120423

>  <Standard Type>
IC50

>  <Standard Relation>
'>'

>  <Standard Value>
50000.0

>  <Standard Units>
nM

$$$$

  Mrv2114 03112311372D          

 37 40  0  0  1  0            999 V2000
   -2.7512   -1.7116    0.0000 C   0  0  0  0  0  0  0  0  0  0  0  0
   -2.7512   -2.5366    0.0000 C   0  0  0  0  0  0  0  0  0  0  0  0
   -2.0837   -3.0215    0.0000 C   0  0  0  0  0  0  0  0  0  0  0  0
   -2.3387   -3.8062    0.0000 C   0  0  0  0  0  0  0  0  0  0  0  0
   -1.8538   -4.4736    0.0000 C   0  0  0  0  0  0  0  0  0  0  0  0
   -1.0333   -4.3874    0.0000 C   0  0  0  0  0  0  0  0  0  0  0  0
   -0.5484   -5.0548    0.0000 C   0  0  0  0  0  0  0  0  0  0  0  0
   -0.8839   -5.8085    0.0000 C   0  0  0  0  0  0  0  0  0  0  0  0
   -0.3990   -6.4759    0.0000 C   0  0  0  0  0  0  0  0  0  0  0  0
   -0.7345   -7.2296    0.0000 O   0  0  0  0  0  0  0  0  0  0  0  0
    0.4215   -6.3897    0.0000 C   0  0  2  0  0  0  0  0  0  0  0  0
    0.7571   -5.6360    0.0000 C   0  0  0  0  0  0  0  0  0  0  0  0
    1.5775   -5.5498    0.0000 C   0  0  0  0  0  0  0  0  0  0  0  0
    2.0625   -6.2172    0.0000 C   0  0  0  0  0  0  0  0  0  0  0  0
    1.7269   -6.9709    0.0000 C   0  0  0  0  0  0  0  0  0  0  0  0
    0.9064   -7.0571    0.0000 C   0  0  1  0  0  0  0  0  0  0  0  0
    0.5709   -7.8108    0.0000 C   0  0  0  0  0  0  0  0  0  0  0  0
    1.0558   -8.4782    0.0000 O   0  0  0  0  0  0  0  0  0  0  0  0
   -0.2496   -7.8970    0.0000 N   0  0  0  0  0  0  0  0  0  0  0  0
   -0.5852   -8.6507    0.0000 C   0  0  0  0  0  0  0  0  0  0  0  0
   -0.1727   -9.3652    0.0000 C   0  0  0  0  0  0  0  0  0  0  0  0
   -0.7247   -9.9783    0.0000 N   0  0  0  0  0  0  0  0  0  0  0  0
   -1.4784   -9.6427    0.0000 N   0  0  0  0  0  0  0  0  0  0  0  0
   -2.1929  -10.0552    0.0000 C   0  0  0  0  0  0  0  0  0  0  0  0
   -1.3922   -8.8222    0.0000 C   0  0  0  0  0  0  0  0  0  0  0  0
   -2.0052   -8.2702    0.0000 C   0  0  0  0  0  0  0  0  0  0  0  0
   -1.8337   -7.4632    0.0000 O   0  0  0  0  0  0  0  0  0  0  0  0
   -2.7899   -8.5251    0.0000 N   0  0  0  0  0  0  0  0  0  0  0  0
   -3.4030   -7.9731    0.0000 O   0  0  0  0  0  0  0  0  0  0  0  0
   -4.1876   -8.2280    0.0000 C   0  0  0  0  0  0  0  0  0  0  0  0
   -4.9722   -8.4830    0.0000 C   0  0  0  0  0  0  0  0  0  0  0  0
   -4.4425   -7.4434    0.0000 C   0  0  0  0  0  0  0  0  0  0  0  0
   -3.9326   -9.0127    0.0000 C   0  0  0  0  0  0  0  0  0  0  0  0
   -1.7044   -5.8947    0.0000 C   0  0  0  0  0  0  0  0  0  0  0  0
   -2.1893   -5.2273    0.0000 C   0  0  0  0  0  0  0  0  0  0  0  0
   -3.1637   -3.8062    0.0000 N   0  0  0  0  0  0  0  0  0  0  0  0
   -3.4186   -3.0215    0.0000 N   0  0  0  0  0  0  0  0  0  0  0  0
  1  2  1  0  0  0  0
  2  3  4  0  0  0  0
  3  4  4  0  0  0  0
  4  5  1  0  0  0  0
  5  6  4  0  0  0  0
  6  7  4  0  0  0  0
  7  8  4  0  0  0  0
  8  9  1  0  0  0  0
  9 10  2  0  0  0  0
 11  9  1  6  0  0  0
 11 12  1  0  0  0  0
 12 13  1  0  0  0  0
 13 14  1  0  0  0  0
 14 15  1  0  0  0  0
 16 15  1  0  0  0  0
 11 16  1  0  0  0  0
 16 17  1  1  0  0  0
 17 18  2  0  0  0  0
 17 19  1  0  0  0  0
 19 20  1  0  0  0  0
 20 21  4  0  0  0  0
 21 22  4  0  0  0  0
 22 23  4  0  0  0  0
 23 24  1  0  0  0  0
 23 25  4  0  0  0  0
 20 25  4  0  0  0  0
 25 26  1  0  0  0  0
 26 27  2  0  0  0  0
 26 28  1  0  0  0  0
 28 29  1  0  0  0  0
 29 30  1  0  0  0  0
 30 31  1  0  0  0  0
 30 32  1  0  0  0  0
 30 33  1  0  0  0  0
  8 34  4  0  0  0  0
 34 35  4  0  0  0  0
  5 35  4  0  0  0  0
  4 36  4  0  0  0  0
 36 37  4  0  0  0  0
  2 37  4  0  0  0  0
M  STY  1   1 DAT
M  SAL   1  1  36
M  SDT   1 MRV_IMPLICIT_H                                        
M  SDD   1     0.0000    0.0000    DR    ALL  0       0  
M  SED   1 IMPL_H1
M  END
>  <CdId>
287

>  <Mol Weight>
506.607

>  <Formula>
C27H34N6O4

>  <Molecule ChEMBL ID>
CHEMBL4563459

>  <Molecule Max Phase>
None

>  <Molecular Weight>
506.61

>  <#RO5 Violations>
1

>  <AlogP>
4.21

>  <Compound Key>
10

>  <Standard Type>
IC50

>  <Standard Relation>
'>'

>  <Standard Value>
20000.0

>  <Standard Units>
nM

$$$$

  Mrv2114 03112311372D          

 36 41  0  0  0  0            999 V2000
    8.1511   -2.1469    0.0000 O   0  0  0  0  0  0  0  0  0  0  0  0
    7.3265   -2.1212    0.0000 C   0  0  0  0  0  0  0  0  0  0  0  0
    6.8919   -2.8224    0.0000 O   0  0  0  0  0  0  0  0  0  0  0  0
    6.9365   -1.3942    0.0000 C   0  0  0  0  0  0  0  0  0  0  0  0
    6.1467   -1.1559    0.0000 C   0  0  0  0  0  0  0  0  0  0  0  0
    6.3850   -0.3660    0.0000 N   0  0  0  0  0  0  0  0  0  0  0  0
    5.9950    0.3610    0.0000 C   0  0  0  0  0  0  0  0  0  0  0  0
    5.1704    0.3867    0.0000 C   0  0  0  0  0  0  0  0  0  0  0  0
    4.7804    1.1137    0.0000 C   0  0  0  0  0  0  0  0  0  0  0  0
    3.9558    1.1395    0.0000 C   0  0  0  0  0  0  0  0  0  0  0  0
    3.5212    0.4383    0.0000 C   0  0  0  0  0  0  0  0  0  0  0  0
    3.9112   -0.2887    0.0000 C   0  0  0  0  0  0  0  0  0  0  0  0
    4.7358   -0.3145    0.0000 C   0  0  0  0  0  0  0  0  0  0  0  0
    3.4766   -0.9900    0.0000 C   0  0  0  0  0  0  0  0  0  0  0  0
    2.6520   -0.9642    0.0000 C   0  0  0  0  0  0  0  0  0  0  0  0
    2.2620   -0.2372    0.0000 C   0  0  0  0  0  0  0  0  0  0  0  0
    2.6966    0.4640    0.0000 C   0  0  0  0  0  0  0  0  0  0  0  0
    2.1640    1.0941    0.0000 N   0  0  0  0  0  0  0  0  0  0  0  0
    1.4002    0.7822    0.0000 O   0  0  0  0  0  0  0  0  0  0  0  0
    1.4608   -0.0406    0.0000 C   0  0  0  0  0  0  0  0  0  0  0  0
    0.8307   -0.5732    0.0000 C   0  0  0  0  0  0  0  0  0  0  0  0
    0.8913   -1.3960    0.0000 O   0  0  0  0  0  0  0  0  0  0  0  0
    0.1275   -1.7078    0.0000 N   0  0  0  0  0  0  0  0  0  0  0  0
   -0.4051   -1.0778    0.0000 C   0  0  0  0  0  0  0  0  0  0  0  0
   -1.2279   -1.1384    0.0000 C   0  0  0  0  0  0  0  0  0  0  0  0
   -1.5868   -1.8812    0.0000 C   0  0  0  0  0  0  0  0  0  0  0  0
   -2.4096   -1.9418    0.0000 C   0  0  0  0  0  0  0  0  0  0  0  0
   -2.8734   -1.2595    0.0000 C   0  0  0  0  0  0  0  0  0  0  0  0
   -2.5145   -0.5167    0.0000 C   0  0  0  0  0  0  0  0  0  0  0  0
   -1.6917   -0.4561    0.0000 C   0  0  0  0  0  0  0  0  0  0  0  0
    0.0295   -0.3765    0.0000 C   0  0  0  0  0  0  0  0  0  0  0  0
   -0.2824    0.3872    0.0000 C   0  0  0  0  0  0  0  0  0  0  0  0
   -0.5942    1.1510    0.0000 F   0  0  0  0  0  0  0  0  0  0  0  0
    0.4814    0.6991    0.0000 F   0  0  0  0  0  0  0  0  0  0  0  0
   -1.0461    0.0754    0.0000 F   0  0  0  0  0  0  0  0  0  0  0  0
    7.1748   -0.6043    0.0000 C   0  0  0  0  0  0  0  0  0  0  0  0
  1  2  2  0  0  0  0
  2  3  1  0  0  0  0
  2  4  1  0  0  0  0
  4  5  1  0  0  0  0
  5  6  1  0  0  0  0
  6  7  1  0  0  0  0
  7  8  1  0  0  0  0
  8  9  4  0  0  0  0
  9 10  4  0  0  0  0
 10 11  4  0  0  0  0
 11 12  4  0  0  0  0
 12 13  4  0  0  0  0
  8 13  4  0  0  0  0
 12 14  1  0  0  0  0
 14 15  1  0  0  0  0
 15 16  1  0  0  0  0
 16 17  4  0  0  0  0
 11 17  1  0  0  0  0
 17 18  4  0  0  0  0
 18 19  4  0  0  0  0
 19 20  4  0  0  0  0
 16 20  4  0  0  0  0
 20 21  1  0  0  0  0
 21 22  4  0  0  0  0
 22 23  4  0  0  0  0
 23 24  4  0  0  0  0
 24 25  1  0  0  0  0
 25 26  4  0  0  0  0
 26 27  4  0  0  0  0
 27 28  4  0  0  0  0
 28 29  4  0  0  0  0
 29 30  4  0  0  0  0
 25 30  4  0  0  0  0
 24 31  4  0  0  0  0
 21 31  4  0  0  0  0
 31 32  1  0  0  0  0
 32 33  1  0  0  0  0
 32 34  1  0  0  0  0
 32 35  1  0  0  0  0
  6 36  1  0  0  0  0
  4 36  1  0  0  0  0
M  END
>  <CdId>
288

>  <Mol Weight>
495.458

>  <Formula>
C26H20F3N3O4

>  <Molecule ChEMBL ID>
CHEMBL3959509

>  <Molecule Max Phase>
None

>  <Molecular Weight>
495.46

>  <#RO5 Violations>
1

>  <AlogP>
5.3

>  <Compound Key>
10

>  <Standard Type>
IC50

>  <Standard Relation>
'='

>  <Standard Value>
14000.0

>  <Standard Units>
nM

$$$$

  Mrv2114 03112311372D          

 36 41  0  0  1  0            999 V2000
    7.5667    5.1335    0.0000 C   0  0  0  0  0  0  0  0  0  0  0  0
    6.7418    5.1250    0.0000 C   0  0  0  0  0  0  0  0  0  0  0  0
    6.2637    4.4526    0.0000 C   0  0  0  0  0  0  0  0  0  0  0  0
    5.4765    4.6995    0.0000 N   0  0  0  0  0  0  0  0  0  0  0  0
    4.8141    4.2078    0.0000 C   0  0  0  0  0  0  0  0  0  0  0  0
    4.0570    4.5356    0.0000 C   0  0  0  0  0  0  0  0  0  0  0  0
    3.3946    4.0439    0.0000 C   0  0  0  0  0  0  0  0  0  0  0  0
    3.4892    3.2243    0.0000 C   0  0  0  0  0  0  0  0  0  0  0  0
    4.2463    2.8965    0.0000 N   0  0  0  0  0  0  0  0  0  0  0  0
    4.9087    3.3883    0.0000 C   0  0  0  0  0  0  0  0  0  0  0  0
    5.6658    3.0604    0.0000 O   0  0  0  0  0  0  0  0  0  0  0  0
    4.3409    2.0770    0.0000 C   0  0  0  0  0  0  0  0  0  0  0  0
    3.6785    1.5852    0.0000 C   0  0  0  0  0  0  0  0  0  0  0  0
    2.9214    1.9131    0.0000 N   0  0  0  0  0  0  0  0  0  0  0  0
    2.2589    1.4213    0.0000 C   0  0  0  0  0  0  0  0  0  0  0  0
    2.3536    0.6018    0.0000 C   0  0  1  0  0  0  0  0  0  0  0  0
    3.1731    0.6964    0.0000 C   0  0  0  0  0  0  0  0  0  0  0  0
    2.8453   -0.0607    0.0000 C   0  0  2  0  0  0  0  0  0  0  0  0
    2.5175   -0.8177    0.0000 C   0  0  0  0  0  0  0  0  0  0  0  0
    3.3200   -1.0091    0.0000 C   0  0  0  0  0  0  0  0  0  0  0  0
    2.4684   -1.6413    0.0000 C   0  0  0  0  0  0  0  0  0  0  0  0
    1.6979   -0.9124    0.0000 O   0  0  0  0  0  0  0  0  0  0  0  0
    1.2062   -0.2499    0.0000 C   0  0  0  0  0  0  0  0  0  0  0  0
    0.3866   -0.3446    0.0000 C   0  0  0  0  0  0  0  0  0  0  0  0
   -0.1051    0.3179    0.0000 C   0  0  0  0  0  0  0  0  0  0  0  0
    0.2227    1.0749    0.0000 C   0  0  0  0  0  0  0  0  0  0  0  0
   -0.2690    1.7374    0.0000 C   0  0  0  0  0  0  0  0  0  0  0  0
   -0.7607    2.3998    0.0000 F   0  0  0  0  0  0  0  0  0  0  0  0
    0.3934    2.2291    0.0000 F   0  0  0  0  0  0  0  0  0  0  0  0
   -0.9314    1.2456    0.0000 F   0  0  0  0  0  0  0  0  0  0  0  0
    1.0423    1.1696    0.0000 C   0  0  0  0  0  0  0  0  0  0  0  0
    1.5340    0.5071    0.0000 C   0  0  0  0  0  0  0  0  0  0  0  0
    2.8267    2.7326    0.0000 C   0  0  0  0  0  0  0  0  0  0  0  0
    2.0697    3.0604    0.0000 O   0  0  0  0  0  0  0  0  0  0  0  0
    5.4681    5.5245    0.0000 C   0  0  0  0  0  0  0  0  0  0  0  0
    6.2500    5.7875    0.0000 N   0  0  0  0  0  0  0  0  0  0  0  0
  1  2  1  0  0  0  0
  2  3  4  0  0  0  0
  3  4  4  0  0  0  0
  4  5  1  0  0  0  0
  5  6  4  0  0  0  0
  6  7  4  0  0  0  0
  7  8  4  0  0  0  0
  8  9  4  0  0  0  0
  9 10  4  0  0  0  0
  5 10  4  0  0  0  0
 10 11  2  0  0  0  0
  9 12  1  0  0  0  0
 12 13  1  0  0  0  0
 13 14  1  0  0  0  0
 14 15  1  0  0  0  0
 16 15  1  1  0  0  0
 16 17  1  0  0  0  0
 18 17  1  6  0  0  0
 16 18  1  0  0  0  0
 18 19  1  0  0  0  0
 19 20  1  0  0  0  0
 19 21  1  0  0  0  0
 19 22  1  0  0  0  0
 22 23  1  0  0  0  0
 23 24  4  0  0  0  0
 24 25  4  0  0  0  0
 25 26  4  0  0  0  0
 26 27  1  0  0  0  0
 27 28  1  0  0  0  0
 27 29  1  0  0  0  0
 27 30  1  0  0  0  0
 26 31  4  0  0  0  0
 31 32  4  0  0  0  0
 23 32  4  0  0  0  0
 16 32  1  0  0  0  0
 14 33  1  0  0  0  0
  8 33  1  0  0  0  0
 33 34  2  0  0  0  0
  4 35  4  0  0  0  0
 35 36  4  0  0  0  0
  2 36  4  0  0  0  0
M  END
>  <CdId>
289

>  <Mol Weight>
498.506

>  <Formula>
C26H25F3N4O3

>  <Molecule ChEMBL ID>
CHEMBL4280986

>  <Molecule Max Phase>
None

>  <Molecular Weight>
498.51

>  <#RO5 Violations>
0

>  <AlogP>
3.95

>  <Compound Key>
44

>  <Standard Type>
IC50

>  <Standard Relation>
'='

>  <Standard Value>
7200.0

>  <Standard Units>
nM

$$$$

  Mrv2114 03112311372D          

 27 29  0  0  1  0            999 V2000
    7.6391    2.7604    0.0000 N   0  0  0  0  0  0  0  0  0  0  0  0
    6.9246    2.3479    0.0000 C   0  0  0  0  0  0  0  0  0  0  0  0
    6.2102    1.9354    0.0000 C   0  0  0  0  0  0  0  0  0  0  0  0
    6.2102    1.1104    0.0000 C   0  0  0  0  0  0  0  0  0  0  0  0
    5.4957    0.6979    0.0000 C   0  0  0  0  0  0  0  0  0  0  0  0
    5.4957   -0.1271    0.0000 F   0  0  0  0  0  0  0  0  0  0  0  0
    4.7812    1.1104    0.0000 C   0  0  0  0  0  0  0  0  0  0  0  0
    4.7812    1.9354    0.0000 C   0  0  0  0  0  0  0  0  0  0  0  0
    4.0668    2.3479    0.0000 O   0  0  0  0  0  0  0  0  0  0  0  0
    3.3523    1.9354    0.0000 C   0  0  0  0  0  0  0  0  0  0  0  0
    3.3523    1.1104    0.0000 C   0  0  0  0  0  0  0  0  0  0  0  0
    2.6378    0.6979    0.0000 C   0  0  0  0  0  0  0  0  0  0  0  0
    1.9233    1.1104    0.0000 C   0  0  0  0  0  0  0  0  0  0  0  0
    1.9233    1.9354    0.0000 C   0  0  0  0  0  0  0  0  0  0  0  0
    2.6378    2.3479    0.0000 C   0  0  0  0  0  0  0  0  0  0  0  0
    2.6378    3.1729    0.0000 C   0  0  0  0  0  0  0  0  0  0  0  0
    3.3523    3.5854    0.0000 F   0  0  0  0  0  0  0  0  0  0  0  0
    1.9233    3.5854    0.0000 F   0  0  0  0  0  0  0  0  0  0  0  0
    1.1387    2.1904    0.0000 C   0  0  1  0  0  0  0  0  0  0  0  0
    0.8838    2.9750    0.0000 O   0  0  0  0  0  0  0  0  0  0  0  0
    0.6538    1.5229    0.0000 C   0  0  0  0  0  0  0  0  0  0  0  0
    0.0407    2.0750    0.0000 F   0  0  0  0  0  0  0  0  0  0  0  0
    0.0407    0.9709    0.0000 F   0  0  0  0  0  0  0  0  0  0  0  0
    1.1387    0.8555    0.0000 S   0  0  0  0  0  0  0  0  0  0  0  0
    0.5314    0.2971    0.0000 O   0  0  0  0  0  0  0  0  0  0  0  0
    1.3018    0.0468    0.0000 O   0  0  0  0  0  0  0  0  0  0  0  0
    5.4957    2.3479    0.0000 C   0  0  0  0  0  0  0  0  0  0  0  0
  1  2  3  0  0  0  0
  2  3  1  0  0  0  0
  3  4  4  0  0  0  0
  4  5  4  0  0  0  0
  5  6  1  0  0  0  0
  5  7  4  0  0  0  0
  7  8  4  0  0  0  0
  8  9  1  0  0  0  0
  9 10  1  0  0  0  0
 10 11  4  0  0  0  0
 11 12  4  0  0  0  0
 12 13  4  0  0  0  0
 13 14  4  0  0  0  0
 14 15  4  0  0  0  0
 10 15  4  0  0  0  0
 15 16  1  0  0  0  0
 16 17  1  0  0  0  0
 16 18  1  0  0  0  0
 19 14  1  0  0  0  0
 19 20  1  6  0  0  0
 19 21  1  0  0  0  0
 21 22  1  0  0  0  0
 21 23  1  0  0  0  0
 21 24  1  0  0  0  0
 13 24  1  0  0  0  0
 24 25  2  0  0  0  0
 24 26  2  0  0  0  0
  8 27  4  0  0  0  0
  3 27  4  0  0  0  0
M  END
>  <CdId>
290

>  <Mol Weight>
405.3

>  <Formula>
C16H8F5NO4S

>  <Molecule ChEMBL ID>
CHEMBL4175320

>  <Molecule Max Phase>
None

>  <Molecular Weight>
405.3

>  <#RO5 Violations>
0

>  <AlogP>
3.84

>  <Compound Key>
9a

>  <Standard Type>
IC50

>  <Standard Relation>
'>'

>  <Standard Value>
50000.0

>  <Standard Units>
nM

$$$$

  Mrv2114 03112311372D          

 20 22  0  0  1  0            999 V2000
    1.1433    1.6545    0.0000 C   0  0  0  0  0  0  0  0  0  0  0  0
    1.8108    2.1394    0.0000 C   0  0  2  0  0  0  0  0  0  0  0  0
    2.2233    1.4250    0.0000 F   0  0  0  0  0  0  0  0  0  0  0  0
    1.2587    2.7525    0.0000 C   0  0  0  0  0  0  0  0  0  0  0  0
    1.6712    3.4670    0.0000 C   0  0  0  0  0  0  0  0  0  0  0  0
    2.4782    3.2955    0.0000 C   0  0  0  0  0  0  0  0  0  0  0  0
    2.5645    2.4750    0.0000 C   0  0  1  0  0  0  0  0  0  0  0  0
    3.2789    2.0625    0.0000 N   0  0  0  0  0  0  0  0  0  0  0  0
    3.2789    1.2375    0.0000 C   0  0  0  0  0  0  0  0  0  0  0  0
    3.9934    0.8250    0.0000 C   0  0  0  0  0  0  0  0  0  0  0  0
    4.7079    1.2375    0.0000 C   0  0  0  0  0  0  0  0  0  0  0  0
    4.7079    2.0625    0.0000 N   0  0  0  0  0  0  0  0  0  0  0  0
    5.4223    0.8250    0.0000 O   0  0  0  0  0  0  0  0  0  0  0  0
    3.9934    0.0000    0.0000 C   0  0  0  0  0  0  0  0  0  0  0  0
    3.2789   -0.4125    0.0000 N   0  0  0  0  0  0  0  0  0  0  0  0
    2.5645    0.0000    0.0000 N   0  0  0  0  0  0  0  0  0  0  0  0
    1.7798   -0.2549    0.0000 C   0  0  0  0  0  0  0  0  0  0  0  0
    1.2949    0.4125    0.0000 C   0  0  0  0  0  0  0  0  0  0  0  0
    1.7798    1.0799    0.0000 C   0  0  0  0  0  0  0  0  0  0  0  0
    2.5645    0.8250    0.0000 C   0  0  0  0  0  0  0  0  0  0  0  0
  2  1  1  6  0  0  0
  2  3  1  1  0  0  0
  2  4  1  0  0  0  0
  4  5  1  0  0  0  0
  5  6  1  0  0  0  0
  7  6  1  0  0  0  0
  2  7  1  0  0  0  0
  7  8  1  1  0  0  0
  8  9  1  0  0  0  0
  9 10  4  0  0  0  0
 10 11  1  0  0  0  0
 11 12  1  0  0  0  0
 11 13  2  0  0  0  0
 10 14  4  0  0  0  0
 14 15  4  0  0  0  0
 15 16  4  0  0  0  0
 16 17  4  0  0  0  0
 17 18  4  0  0  0  0
 18 19  4  0  0  0  0
 19 20  4  0  0  0  0
  9 20  4  0  0  0  0
 16 20  4  0  0  0  0
M  END
>  <CdId>
291

>  <Mol Weight>
276.315

>  <Formula>
C14H17FN4O

>  <Molecule ChEMBL ID>
CHEMBL3359927

>  <Molecule Max Phase>
None

>  <Molecular Weight>
276.32

>  <#RO5 Violations>
0

>  <AlogP>
2.13

>  <Compound Key>
5g

>  <Standard Type>
IC50

>  <Standard Relation>
'>'

>  <Standard Value>
20000.0

>  <Standard Units>
nM

$$$$

  Mrv2114 03112311372D          

 41 47  0  0  0  0            999 V2000
    6.4970   -1.8338    0.0000 O   0  0  0  0  0  0  0  0  0  0  0  0
    5.7825   -1.4213    0.0000 C   0  0  0  0  0  0  0  0  0  0  0  0
    5.7825   -0.5963    0.0000 O   0  0  0  0  0  0  0  0  0  0  0  0
    5.0680   -1.8338    0.0000 C   0  0  0  0  0  0  0  0  0  0  0  0
    5.0680   -2.6588    0.0000 C   0  0  0  0  0  0  0  0  0  0  0  0
    4.3536   -3.0713    0.0000 C   0  0  0  0  0  0  0  0  0  0  0  0
    4.3536   -3.8963    0.0000 F   0  0  0  0  0  0  0  0  0  0  0  0
    3.6391   -2.6588    0.0000 C   0  0  0  0  0  0  0  0  0  0  0  0
    2.8545   -2.9138    0.0000 N   0  0  0  0  0  0  0  0  0  0  0  0
    2.3695   -2.2463    0.0000 C   0  0  0  0  0  0  0  0  0  0  0  0
    1.5445   -2.2463    0.0000 N   0  0  0  0  0  0  0  0  0  0  0  0
    1.1320   -2.9608    0.0000 C   0  0  0  0  0  0  0  0  0  0  0  0
    0.3070   -2.9608    0.0000 C   0  0  0  0  0  0  0  0  0  0  0  0
   -0.1055   -2.2463    0.0000 C   0  0  0  0  0  0  0  0  0  0  0  0
   -0.6888   -2.8297    0.0000 C   0  0  0  0  0  0  0  0  0  0  0  0
   -1.2722   -2.2463    0.0000 C   0  0  0  0  0  0  0  0  0  0  0  0
   -2.0972   -2.2463    0.0000 C   0  0  0  0  0  0  0  0  0  0  0  0
   -2.5821   -2.9138    0.0000 C   0  0  0  0  0  0  0  0  0  0  0  0
   -2.3272   -3.6984    0.0000 C   0  0  0  0  0  0  0  0  0  0  0  0
   -1.5202   -3.8699    0.0000 C   0  0  0  0  0  0  0  0  0  0  0  0
   -1.2653   -4.6545    0.0000 C   0  0  0  0  0  0  0  0  0  0  0  0
   -1.8173   -5.2676    0.0000 C   0  0  0  0  0  0  0  0  0  0  0  0
   -2.6243   -5.0961    0.0000 C   0  0  0  0  0  0  0  0  0  0  0  0
   -2.8792   -4.3115    0.0000 C   0  0  0  0  0  0  0  0  0  0  0  0
   -3.6862   -4.1400    0.0000 O   0  0  0  0  0  0  0  0  0  0  0  0
   -4.2382   -4.7531    0.0000 C   0  0  0  0  0  0  0  0  0  0  0  0
   -4.7902   -5.3661    0.0000 F   0  0  0  0  0  0  0  0  0  0  0  0
   -4.8513   -4.2010    0.0000 F   0  0  0  0  0  0  0  0  0  0  0  0
   -3.6251   -5.3051    0.0000 F   0  0  0  0  0  0  0  0  0  0  0  0
   -3.3667   -2.6588    0.0000 N   0  0  0  0  0  0  0  0  0  0  0  0
   -3.3667   -1.8338    0.0000 O   0  0  0  0  0  0  0  0  0  0  0  0
   -2.5821   -1.5789    0.0000 C   0  0  0  0  0  0  0  0  0  0  0  0
   -2.3272   -0.7943    0.0000 C   0  0  0  0  0  0  0  0  0  0  0  0
   -2.4987    0.0127    0.0000 C   0  0  0  0  0  0  0  0  0  0  0  0
   -1.7141   -0.2422    0.0000 C   0  0  0  0  0  0  0  0  0  0  0  0
   -0.6888   -1.6630    0.0000 C   0  0  0  0  0  0  0  0  0  0  0  0
    0.3070   -1.5319    0.0000 C   0  0  0  0  0  0  0  0  0  0  0  0
    1.1320   -1.5319    0.0000 C   0  0  0  0  0  0  0  0  0  0  0  0
    2.8545   -1.5789    0.0000 S   0  0  0  0  0  0  0  0  0  0  0  0
    3.6391   -1.8338    0.0000 C   0  0  0  0  0  0  0  0  0  0  0  0
    4.3536   -1.4213    0.0000 C   0  0  0  0  0  0  0  0  0  0  0  0
  1  2  2  0  0  0  0
  2  3  1  0  0  0  0
  2  4  1  0  0  0  0
  4  5  4  0  0  0  0
  5  6  4  0  0  0  0
  6  7  1  0  0  0  0
  6  8  4  0  0  0  0
  8  9  4  0  0  0  0
  9 10  4  0  0  0  0
 10 11  1  0  0  0  0
 11 12  1  0  0  0  0
 12 13  1  0  0  0  0
 13 14  1  0  0  0  0
 14 15  1  0  0  0  0
 15 16  2  0  0  0  0
 16 17  1  0  0  0  0
 17 18  4  0  0  0  0
 18 19  1  0  0  0  0
 19 20  4  0  0  0  0
 20 21  4  0  0  0  0
 21 22  4  0  0  0  0
 22 23  4  0  0  0  0
 23 24  4  0  0  0  0
 19 24  4  0  0  0  0
 24 25  1  0  0  0  0
 25 26  1  0  0  0  0
 26 27  1  0  0  0  0
 26 28  1  0  0  0  0
 26 29  1  0  0  0  0
 18 30  4  0  0  0  0
 30 31  4  0  0  0  0
 31 32  4  0  0  0  0
 17 32  4  0  0  0  0
 32 33  1  0  0  0  0
 33 34  1  0  0  0  0
 34 35  1  0  0  0  0
 33 35  1  0  0  0  0
 16 36  1  0  0  0  0
 14 36  1  0  0  0  0
 14 37  1  0  0  0  0
 37 38  1  0  0  0  0
 11 38  1  0  0  0  0
 10 39  4  0  0  0  0
 39 40  4  0  0  0  0
  8 40  4  0  0  0  0
 40 41  4  0  0  0  0
  4 41  4  0  0  0  0
M  END
>  <CdId>
292

>  <Mol Weight>
585.57

>  <Formula>
C29H23F4N3O4S

>  <Molecule ChEMBL ID>
CHEMBL4851875

>  <Molecule Max Phase>
None

>  <Molecular Weight>
585.58

>  <#RO5 Violations>
2

>  <AlogP>
7.64

>  <Compound Key>
11

>  <Standard Type>
IC50

>  <Standard Relation>
'='

>  <Standard Value>
6200.0

>  <Standard Units>
nM

$$$$

  Mrv2114 03112311372D          

 29 32  0  0  0  0            999 V2000
    2.8579   -4.9500    0.0000 O   0  0  0  0  0  0  0  0  0  0  0  0
    2.1434   -5.3625    0.0000 C   0  0  0  0  0  0  0  0  0  0  0  0
    2.1434   -6.1875    0.0000 N   0  0  0  0  0  0  0  0  0  0  0  0
    2.8579   -6.6000    0.0000 C   0  0  0  0  0  0  0  0  0  0  0  0
    3.5724   -6.1875    0.0000 C   0  0  0  0  0  0  0  0  0  0  0  0
    4.2868   -6.6000    0.0000 C   0  0  0  0  0  0  0  0  0  0  0  0
    4.2868   -7.4250    0.0000 C   0  0  0  0  0  0  0  0  0  0  0  0
    5.0013   -7.8375    0.0000 Cl  0  0  0  0  0  0  0  0  0  0  0  0
    3.5724   -7.8375    0.0000 C   0  0  0  0  0  0  0  0  0  0  0  0
    2.8579   -7.4250    0.0000 C   0  0  0  0  0  0  0  0  0  0  0  0
    1.4289   -4.9500    0.0000 C   0  0  0  0  0  0  0  0  0  0  0  0
    0.7145   -5.3625    0.0000 O   0  0  0  0  0  0  0  0  0  0  0  0
    1.4289   -4.1250    0.0000 N   0  0  0  0  0  0  0  0  0  0  0  0
    0.7145   -3.7125    0.0000 C   0  0  0  0  0  0  0  0  0  0  0  0
    0.7145   -2.8875    0.0000 C   0  0  0  0  0  0  0  0  0  0  0  0
    1.4289   -2.4750    0.0000 C   0  0  0  0  0  0  0  0  0  0  0  0
    1.4289   -1.6500    0.0000 C   0  0  0  0  0  0  0  0  0  0  0  0
    0.7145   -1.2375    0.0000 C   0  0  0  0  0  0  0  0  0  0  0  0
    0.7145   -0.4125    0.0000 C   0  0  0  0  0  0  0  0  0  0  0  0
    1.4289    0.0000    0.0000 N   0  0  0  0  0  0  0  0  0  0  0  0
    2.1434   -0.4125    0.0000 C   0  0  0  0  0  0  0  0  0  0  0  0
    2.8579    0.0000    0.0000 C   0  0  0  0  0  0  0  0  0  0  0  0
    3.5724   -0.4125    0.0000 C   0  0  0  0  0  0  0  0  0  0  0  0
    3.5724   -1.2375    0.0000 C   0  0  0  0  0  0  0  0  0  0  0  0
    4.2868   -1.6500    0.0000 F   0  0  0  0  0  0  0  0  0  0  0  0
    2.8579   -1.6500    0.0000 C   0  0  0  0  0  0  0  0  0  0  0  0
    2.1434   -1.2375    0.0000 C   0  0  0  0  0  0  0  0  0  0  0  0
    2.1434   -2.8875    0.0000 C   0  0  0  0  0  0  0  0  0  0  0  0
    2.1434   -3.7125    0.0000 C   0  0  0  0  0  0  0  0  0  0  0  0
  1  2  2  0  0  0  0
  2  3  1  0  0  0  0
  3  4  1  0  0  0  0
  4  5  4  0  0  0  0
  5  6  4  0  0  0  0
  6  7  4  0  0  0  0
  7  8  1  0  0  0  0
  7  9  4  0  0  0  0
  9 10  4  0  0  0  0
  4 10  4  0  0  0  0
  2 11  1  0  0  0  0
 11 12  2  0  0  0  0
 11 13  1  0  0  0  0
 13 14  1  0  0  0  0
 14 15  1  0  0  0  0
 15 16  1  0  0  0  0
 16 17  1  0  0  0  0
 17 18  4  0  0  0  0
 18 19  4  0  0  0  0
 19 20  4  0  0  0  0
 20 21  4  0  0  0  0
 21 22  4  0  0  0  0
 22 23  4  0  0  0  0
 23 24  4  0  0  0  0
 24 25  1  0  0  0  0
 24 26  4  0  0  0  0
 26 27  4  0  0  0  0
 17 27  4  0  0  0  0
 21 27  4  0  0  0  0
 16 28  1  0  0  0  0
 28 29  1  0  0  0  0
 13 29  1  0  0  0  0
M  END
>  <CdId>
293

>  <Mol Weight>
411.86

>  <Formula>
C22H19ClFN3O2

>  <Molecule ChEMBL ID>
CHEMBL4746699

>  <Molecule Max Phase>
None

>  <Molecular Weight>
411.86

>  <#RO5 Violations>
0

>  <AlogP>
4.37

>  <Compound Key>
13

>  <Standard Type>
IC50

>  <Standard Relation>
'='

>  <Standard Value>
4700.0

>  <Standard Units>
nM

$$$$

  Mrv2114 03112311372D          

 34 37  0  0  0  0            999 V2000
   -2.1738   -3.6366    0.0000 O   0  0  0  0  0  0  0  0  0  0  0  0
   -1.4593   -3.2241    0.0000 C   0  0  0  0  0  0  0  0  0  0  0  0
   -0.7448   -3.6366    0.0000 N   0  0  0  0  0  0  0  0  0  0  0  0
   -0.7448   -4.4616    0.0000 C   0  0  0  0  0  0  0  0  0  0  0  0
   -0.0774   -4.9465    0.0000 C   0  0  0  0  0  0  0  0  0  0  0  0
   -0.3323   -5.7311    0.0000 N   0  0  0  0  0  0  0  0  0  0  0  0
   -1.1573   -5.7311    0.0000 N   0  0  0  0  0  0  0  0  0  0  0  0
   -1.6422   -6.3986    0.0000 C   0  0  0  0  0  0  0  0  0  0  0  0
   -1.3067   -7.1522    0.0000 C   0  0  0  0  0  0  0  0  0  0  0  0
   -0.4862   -7.2385    0.0000 C   0  0  0  0  0  0  0  0  0  0  0  0
   -0.1506   -7.9921    0.0000 C   0  0  0  0  0  0  0  0  0  0  0  0
   -0.6356   -8.6596    0.0000 C   0  0  0  0  0  0  0  0  0  0  0  0
   -0.3000   -9.4133    0.0000 C   0  0  0  0  0  0  0  0  0  0  0  0
    0.0355  -10.1669    0.0000 F   0  0  0  0  0  0  0  0  0  0  0  0
    0.4537   -9.0777    0.0000 F   0  0  0  0  0  0  0  0  0  0  0  0
   -1.0537   -9.7488    0.0000 F   0  0  0  0  0  0  0  0  0  0  0  0
   -1.4560   -8.5733    0.0000 C   0  0  0  0  0  0  0  0  0  0  0  0
   -1.7916   -7.8197    0.0000 C   0  0  0  0  0  0  0  0  0  0  0  0
   -2.6121   -7.7334    0.0000 C   0  0  0  0  0  0  0  0  0  0  0  0
   -3.4326   -7.6472    0.0000 F   0  0  0  0  0  0  0  0  0  0  0  0
   -2.5258   -6.9129    0.0000 F   0  0  0  0  0  0  0  0  0  0  0  0
   -2.6983   -8.5539    0.0000 F   0  0  0  0  0  0  0  0  0  0  0  0
   -1.4123   -4.9465    0.0000 C   0  0  0  0  0  0  0  0  0  0  0  0
   -1.4593   -2.3991    0.0000 C   0  0  0  0  0  0  0  0  0  0  0  0
   -2.1267   -1.9141    0.0000 C   0  0  0  0  0  0  0  0  0  0  0  0
   -1.8718   -1.1295    0.0000 C   0  0  0  0  0  0  0  0  0  0  0  0
   -2.3567   -0.4621    0.0000 C   0  0  0  0  0  0  0  0  0  0  0  0
   -3.1772   -0.5483    0.0000 C   0  0  0  0  0  0  0  0  0  0  0  0
   -3.6621    0.1191    0.0000 C   0  0  0  0  0  0  0  0  0  0  0  0
   -3.3266    0.8728    0.0000 C   0  0  0  0  0  0  0  0  0  0  0  0
   -2.5061    0.9590    0.0000 C   0  0  0  0  0  0  0  0  0  0  0  0
   -2.0212    0.2916    0.0000 N   0  0  0  0  0  0  0  0  0  0  0  0
   -1.0468   -1.1295    0.0000 O   0  0  0  0  0  0  0  0  0  0  0  0
   -0.7918   -1.9141    0.0000 N   0  0  0  0  0  0  0  0  0  0  0  0
  1  2  2  0  0  0  0
  2  3  1  0  0  0  0
  3  4  1  0  0  0  0
  4  5  4  0  0  0  0
  5  6  4  0  0  0  0
  6  7  4  0  0  0  0
  7  8  1  0  0  0  0
  8  9  1  0  0  0  0
  9 10  4  0  0  0  0
 10 11  4  0  0  0  0
 11 12  4  0  0  0  0
 12 13  1  0  0  0  0
 13 14  1  0  0  0  0
 13 15  1  0  0  0  0
 13 16  1  0  0  0  0
 12 17  4  0  0  0  0
 17 18  4  0  0  0  0
  9 18  4  0  0  0  0
 18 19  1  0  0  0  0
 19 20  1  0  0  0  0
 19 21  1  0  0  0  0
 19 22  1  0  0  0  0
  7 23  4  0  0  0  0
  4 23  4  0  0  0  0
  2 24  1  0  0  0  0
 24 25  4  0  0  0  0
 25 26  4  0  0  0  0
 26 27  1  0  0  0  0
 27 28  4  0  0  0  0
 28 29  4  0  0  0  0
 29 30  4  0  0  0  0
 30 31  4  0  0  0  0
 31 32  4  0  0  0  0
 27 32  4  0  0  0  0
 26 33  4  0  0  0  0
 33 34  4  0  0  0  0
 24 34  4  0  0  0  0
M  END
>  <CdId>
294

>  <Mol Weight>
481.358

>  <Formula>
C21H13F6N5O2

>  <Molecule ChEMBL ID>
CHEMBL5088106

>  <Molecule Max Phase>
None

>  <Molecular Weight>
481.36

>  <#RO5 Violations>
1

>  <AlogP>
5.27

>  <Compound Key>
Compound 11

>  <Standard Type>
IC50

>  <Standard Relation>
'='

>  <Standard Value>
1090.0

>  <Standard Units>
nM

$$$$

  Mrv2114 03112311372D          

 27 28  0  0  1  0            999 V2000
   -2.8579   -1.6500    0.0000 C   0  0  0  0  0  0  0  0  0  0  0  0
   -2.1434   -1.2375    0.0000 C   0  0  0  0  0  0  0  0  0  0  0  0
   -2.1434   -0.4125    0.0000 C   0  0  0  0  0  0  0  0  0  0  0  0
   -1.4289   -1.6500    0.0000 C   0  0  0  0  0  0  0  0  0  0  0  0
   -0.7145   -1.2375    0.0000 C   0  0  0  0  0  0  0  0  0  0  0  0
    0.0000   -1.6500    0.0000 C   0  0  0  0  0  0  0  0  0  0  0  0
    0.0000   -2.4750    0.0000 C   0  0  0  0  0  0  0  0  0  0  0  0
    0.7145   -2.8875    0.0000 C   0  0  0  0  0  0  0  0  0  0  0  0
    1.4289   -2.4750    0.0000 C   0  0  0  0  0  0  0  0  0  0  0  0
    1.4289   -1.6500    0.0000 O   0  0  0  0  0  0  0  0  0  0  0  0
    2.1434   -2.8875    0.0000 N   0  0  0  0  0  0  0  0  0  0  0  0
    2.8579   -2.4750    0.0000 C   0  0  2  0  0  0  0  0  0  0  0  0
    2.8579   -1.6500    0.0000 C   0  0  0  0  0  0  0  0  0  0  0  0
    3.5724   -2.8875    0.0000 C   0  0  0  0  0  0  0  0  0  0  0  0
    4.2868   -2.4750    0.0000 C   0  0  0  0  0  0  0  0  0  0  0  0
    5.0013   -2.8875    0.0000 C   0  0  0  0  0  0  0  0  0  0  0  0
    5.0013   -3.7125    0.0000 C   0  0  0  0  0  0  0  0  0  0  0  0
    5.7158   -4.1250    0.0000 O   0  0  0  0  0  0  0  0  0  0  0  0
    5.7158   -4.9500    0.0000 C   0  0  0  0  0  0  0  0  0  0  0  0
    6.4302   -5.3625    0.0000 C   0  0  0  0  0  0  0  0  0  0  0  0
    7.1447   -5.7750    0.0000 F   0  0  0  0  0  0  0  0  0  0  0  0
    6.0177   -6.0770    0.0000 F   0  0  0  0  0  0  0  0  0  0  0  0
    6.8427   -4.6480    0.0000 F   0  0  0  0  0  0  0  0  0  0  0  0
    4.2868   -4.1250    0.0000 C   0  0  0  0  0  0  0  0  0  0  0  0
    3.5724   -3.7125    0.0000 N   0  0  0  0  0  0  0  0  0  0  0  0
   -0.7145   -2.8875    0.0000 C   0  0  0  0  0  0  0  0  0  0  0  0
   -1.4289   -2.4750    0.0000 C   0  0  0  0  0  0  0  0  0  0  0  0
  1  2  1  0  0  0  0
  2  3  1  0  0  0  0
  2  4  1  0  0  0  0
  4  5  4  0  0  0  0
  5  6  4  0  0  0  0
  6  7  4  0  0  0  0
  7  8  1  0  0  0  0
  8  9  1  0  0  0  0
  9 10  2  0  0  0  0
  9 11  1  0  0  0  0
 12 11  1  0  0  0  0
 12 13  1  6  0  0  0
 12 14  1  0  0  0  0
 14 15  4  0  0  0  0
 15 16  4  0  0  0  0
 16 17  4  0  0  0  0
 17 18  1  0  0  0  0
 18 19  1  0  0  0  0
 19 20  1  0  0  0  0
 20 21  1  0  0  0  0
 20 22  1  0  0  0  0
 20 23  1  0  0  0  0
 17 24  4  0  0  0  0
 24 25  4  0  0  0  0
 14 25  4  0  0  0  0
  7 26  4  0  0  0  0
 26 27  4  0  0  0  0
  4 27  4  0  0  0  0
M  END
>  <CdId>
295

>  <Mol Weight>
380.411

>  <Formula>
C20H23F3N2O2

>  <Molecule ChEMBL ID>
CHEMBL1684950

>  <Molecule Name>
SUVECALTAMIDE

>  <Molecule Max Phase>
2

>  <Molecular Weight>
380.41

>  <#RO5 Violations>
0

>  <AlogP>
4.57

>  <Compound Key>
CX-8998

>  <Standard Type>
IC50

>  <Standard Relation>
'>'

>  <Standard Value>
20000.0

>  <Standard Units>
nM

$$$$

  Mrv2114 03112311372D          

 21 23  0  0  0  0            999 V2000
    2.8579   -1.6500    0.0000 N   0  0  0  0  0  0  0  0  0  0  0  0
    2.8579   -2.4750    0.0000 C   0  0  0  0  0  0  0  0  0  0  0  0
    3.5724   -2.8875    0.0000 C   0  0  0  0  0  0  0  0  0  0  0  0
    3.5724   -3.7125    0.0000 C   0  0  0  0  0  0  0  0  0  0  0  0
    2.8579   -4.1250    0.0000 C   0  0  0  0  0  0  0  0  0  0  0  0
    2.8579   -4.9500    0.0000 C   0  0  0  0  0  0  0  0  0  0  0  0
    3.5724   -5.3625    0.0000 C   0  0  0  0  0  0  0  0  0  0  0  0
    3.5724   -6.1875    0.0000 N   0  0  0  0  0  0  0  0  0  0  0  0
    2.8579   -6.6000    0.0000 C   0  0  0  0  0  0  0  0  0  0  0  0
    2.8579   -7.4250    0.0000 N   0  0  0  0  0  0  0  0  0  0  0  0
    2.1434   -6.1875    0.0000 C   0  0  0  0  0  0  0  0  0  0  0  0
    1.4289   -6.6000    0.0000 C   0  0  0  0  0  0  0  0  0  0  0  0
    1.4289   -7.4250    0.0000 C   0  0  0  0  0  0  0  0  0  0  0  0
    0.7145   -7.8375    0.0000 C   0  0  0  0  0  0  0  0  0  0  0  0
   -0.0000   -7.4250    0.0000 C   0  0  0  0  0  0  0  0  0  0  0  0
   -0.7145   -7.8375    0.0000 Cl  0  0  0  0  0  0  0  0  0  0  0  0
    0.0000   -6.6000    0.0000 C   0  0  0  0  0  0  0  0  0  0  0  0
    0.7145   -6.1875    0.0000 C   0  0  0  0  0  0  0  0  0  0  0  0
    2.1434   -5.3625    0.0000 C   0  0  0  0  0  0  0  0  0  0  0  0
    2.1434   -3.7125    0.0000 C   0  0  0  0  0  0  0  0  0  0  0  0
    2.1434   -2.8875    0.0000 N   0  0  0  0  0  0  0  0  0  0  0  0
  1  2  1  0  0  0  0
  2  3  4  0  0  0  0
  3  4  4  0  0  0  0
  4  5  4  0  0  0  0
  5  6  1  0  0  0  0
  6  7  4  0  0  0  0
  7  8  4  0  0  0  0
  8  9  4  0  0  0  0
  9 10  1  0  0  0  0
  9 11  4  0  0  0  0
 11 12  1  0  0  0  0
 12 13  4  0  0  0  0
 13 14  4  0  0  0  0
 14 15  4  0  0  0  0
 15 16  1  0  0  0  0
 15 17  4  0  0  0  0
 17 18  4  0  0  0  0
 12 18  4  0  0  0  0
 11 19  4  0  0  0  0
  6 19  4  0  0  0  0
  5 20  4  0  0  0  0
 20 21  4  0  0  0  0
  2 21  4  0  0  0  0
M  END
>  <CdId>
296

>  <Mol Weight>
296.76

>  <Formula>
C16H13ClN4

>  <Molecule ChEMBL ID>
CHEMBL3754515

>  <Molecule Max Phase>
None

>  <Molecular Weight>
296.76

>  <#RO5 Violations>
0

>  <AlogP>
3.63

>  <Compound Key>
1

>  <Standard Type>
IC50

>  <Standard Relation>
'>'

>  <Standard Value>
3000.0

>  <Standard Units>
nM

$$$$

  Mrv2114 03112311372D          

 44 48  0  0  1  0            999 V2000
   -1.6382   -3.9864    0.0000 C   0  0  0  0  0  0  0  0  0  0  0  0
   -1.7845   -3.1744    0.0000 C   0  0  1  0  0  0  0  0  0  0  0  0
   -2.5607   -2.8951    0.0000 C   0  0  0  0  0  0  0  0  0  0  0  0
   -2.7070   -2.0832    0.0000 C   0  0  2  0  0  0  0  0  0  0  0  0
   -3.4833   -1.8039    0.0000 C   0  0  0  0  0  0  0  0  0  0  0  0
   -3.6295   -0.9919    0.0000 O   0  0  0  0  0  0  0  0  0  0  0  0
   -4.1133   -2.3365    0.0000 O   0  0  0  0  0  0  0  0  0  0  0  0
   -2.0769   -1.5506    0.0000 C   0  0  0  0  0  0  0  0  0  0  0  0
   -1.3007   -1.8299    0.0000 C   0  0  0  0  0  0  0  0  0  0  0  0
   -1.1544   -2.6418    0.0000 C   0  0  1  0  0  0  0  0  0  0  0  0
   -0.3781   -2.9211    0.0000 N   0  0  0  0  0  0  0  0  0  0  0  0
    0.2519   -2.3885    0.0000 N   0  0  0  0  0  0  0  0  0  0  0  0
    0.1913   -1.5657    0.0000 C   0  0  0  0  0  0  0  0  0  0  0  0
    0.9551   -1.2539    0.0000 C   0  0  0  0  0  0  0  0  0  0  0  0
    1.4877   -1.8839    0.0000 C   0  0  1  0  0  0  0  0  0  0  0  0
    1.8467   -1.1411    0.0000 S   0  0  0  0  0  0  0  0  0  0  0  0
    2.5737   -0.7511    0.0000 O   0  0  0  0  0  0  0  0  0  0  0  0
    1.1038   -0.7822    0.0000 O   0  0  0  0  0  0  0  0  0  0  0  0
    2.2056   -0.3983    0.0000 C   0  0  0  0  0  0  0  0  0  0  0  0
    1.7417    0.2840    0.0000 C   0  0  0  0  0  0  0  0  0  0  0  0
    2.1007    1.0268    0.0000 C   0  0  0  0  0  0  0  0  0  0  0  0
    2.9234    1.0874    0.0000 C   0  0  0  0  0  0  0  0  0  0  0  0
    3.2824    1.8302    0.0000 F   0  0  0  0  0  0  0  0  0  0  0  0
    3.3873    0.4051    0.0000 C   0  0  0  0  0  0  0  0  0  0  0  0
    3.0284   -0.3377    0.0000 C   0  0  0  0  0  0  0  0  0  0  0  0
    2.3123   -1.9097    0.0000 C   0  0  0  0  0  0  0  0  0  0  0  0
    2.7469   -1.2084    0.0000 C   0  0  0  0  0  0  0  0  0  0  0  0
    3.5715   -1.2342    0.0000 C   0  0  0  0  0  0  0  0  0  0  0  0
    3.9615   -1.9612    0.0000 C   0  0  0  0  0  0  0  0  0  0  0  0
    4.7861   -1.9870    0.0000 C   0  0  0  0  0  0  0  0  0  0  0  0
    4.8119   -1.1624    0.0000 F   0  0  0  0  0  0  0  0  0  0  0  0
    4.7603   -2.8116    0.0000 C   0  0  0  0  0  0  0  0  0  0  0  0
    4.7346   -3.6362    0.0000 F   0  0  0  0  0  0  0  0  0  0  0  0
    3.9358   -2.7858    0.0000 F   0  0  0  0  0  0  0  0  0  0  0  0
    5.5849   -2.8373    0.0000 F   0  0  0  0  0  0  0  0  0  0  0  0
    5.6107   -2.0127    0.0000 C   0  0  0  0  0  0  0  0  0  0  0  0
    6.4353   -2.0385    0.0000 F   0  0  0  0  0  0  0  0  0  0  0  0
    6.0746   -2.6950    0.0000 F   0  0  0  0  0  0  0  0  0  0  0  0
    5.6365   -1.1881    0.0000 F   0  0  0  0  0  0  0  0  0  0  0  0
    3.5269   -2.6624    0.0000 C   0  0  0  0  0  0  0  0  0  0  0  0
    2.7023   -2.6367    0.0000 C   0  0  0  0  0  0  0  0  0  0  0  0
    2.2677   -3.3379    0.0000 C   0  0  0  0  0  0  0  0  0  0  0  0
    1.4431   -3.3122    0.0000 C   0  0  0  0  0  0  0  0  0  0  0  0
    1.0531   -2.5852    0.0000 C   0  0  1  0  0  0  0  0  0  0  0  0
  2  1  1  1  0  0  0
  2  3  1  0  0  0  0
  4  3  1  0  0  0  0
  4  5  1  6  0  0  0
  5  6  2  0  0  0  0
  5  7  1  0  0  0  0
  4  8  1  0  0  0  0
  8  9  1  0  0  0  0
 10  9  1  0  0  0  0
  2 10  1  0  0  0  0
 10 11  1  1  0  0  0
 11 12  1  0  0  0  0
 12 13  1  0  0  0  0
 13 14  1  0  0  0  0
 15 14  1  0  0  0  0
 15 16  1  6  0  0  0
 16 17  2  0  0  0  0
 16 18  2  0  0  0  0
 16 19  1  0  0  0  0
 19 20  4  0  0  0  0
 20 21  4  0  0  0  0
 21 22  4  0  0  0  0
 22 23  1  0  0  0  0
 22 24  4  0  0  0  0
 24 25  4  0  0  0  0
 19 25  4  0  0  0  0
 15 26  1  0  0  0  0
 26 27  4  0  0  0  0
 27 28  4  0  0  0  0
 28 29  4  0  0  0  0
 29 30  1  0  0  0  0
 30 31  1  0  0  0  0
 30 32  1  0  0  0  0
 32 33  1  0  0  0  0
 32 34  1  0  0  0  0
 32 35  1  0  0  0  0
 30 36  1  0  0  0  0
 36 37  1  0  0  0  0
 36 38  1  0  0  0  0
 36 39  1  0  0  0  0
 29 40  4  0  0  0  0
 40 41  4  0  0  0  0
 26 41  4  0  0  0  0
 41 42  1  0  0  0  0
 42 43  1  0  0  0  0
 44 43  1  0  0  0  0
 44 12  1  1  0  0  0
 15 44  1  0  0  0  0
M  END
>  <CdId>
297

>  <Mol Weight>
654.62

>  <Formula>
C29H30F8N2O4S

>  <Molecule ChEMBL ID>
CHEMBL4871326

>  <Molecule Max Phase>
None

>  <Molecular Weight>
654.62

>  <#RO5 Violations>
2

>  <AlogP>
6.2

>  <Compound Key>
1; BMS-986251

>  <Standard Type>
IC50

>  <Standard Relation>
'='

>  <Standard Value>
16000.0

>  <Standard Units>
nM

$$$$

  Mrv2114 03112311372D          

 19 21  0  0  0  0            999 V2000
    3.2789    2.0625    0.0000 O   0  0  0  0  0  0  0  0  0  0  0  0
    3.2789    1.2375    0.0000 C   0  0  0  0  0  0  0  0  0  0  0  0
    3.9934    0.8250    0.0000 N   0  0  0  0  0  0  0  0  0  0  0  0
    3.9934    0.0000    0.0000 C   0  0  0  0  0  0  0  0  0  0  0  0
    4.7079   -0.4125    0.0000 S   0  0  0  0  0  0  0  0  0  0  0  0
    4.7079   -1.2375    0.0000 C   0  0  0  0  0  0  0  0  0  0  0  0
    5.4223   -1.6500    0.0000 C   0  0  0  0  0  0  0  0  0  0  0  0
    6.1368   -1.2375    0.0000 C   0  0  0  0  0  0  0  0  0  0  0  0
    6.8513   -1.6500    0.0000 C   0  0  0  0  0  0  0  0  0  0  0  0
    6.8513   -2.4750    0.0000 C   0  0  0  0  0  0  0  0  0  0  0  0
    7.5658   -2.8875    0.0000 Cl  0  0  0  0  0  0  0  0  0  0  0  0
    6.1368   -2.8875    0.0000 C   0  0  0  0  0  0  0  0  0  0  0  0
    5.4223   -2.4750    0.0000 C   0  0  0  0  0  0  0  0  0  0  0  0
    3.2789   -0.4125    0.0000 N   0  0  0  0  0  0  0  0  0  0  0  0
    2.5645    0.0000    0.0000 C   0  0  0  0  0  0  0  0  0  0  0  0
    2.5645    0.8250    0.0000 C   0  0  0  0  0  0  0  0  0  0  0  0
    1.7798    1.0799    0.0000 C   0  0  0  0  0  0  0  0  0  0  0  0
    1.2949    0.4125    0.0000 C   0  0  0  0  0  0  0  0  0  0  0  0
    1.7798   -0.2549    0.0000 C   0  0  0  0  0  0  0  0  0  0  0  0
  1  2  1  0  0  0  0
  2  3  4  0  0  0  0
  3  4  4  0  0  0  0
  4  5  1  0  0  0  0
  5  6  1  0  0  0  0
  6  7  1  0  0  0  0
  7  8  4  0  0  0  0
  8  9  4  0  0  0  0
  9 10  4  0  0  0  0
 10 11  1  0  0  0  0
 10 12  4  0  0  0  0
 12 13  4  0  0  0  0
  7 13  4  0  0  0  0
  4 14  4  0  0  0  0
 14 15  4  0  0  0  0
 15 16  4  0  0  0  0
  2 16  4  0  0  0  0
 16 17  1  0  0  0  0
 17 18  1  0  0  0  0
 18 19  1  0  0  0  0
 15 19  1  0  0  0  0
M  END
>  <CdId>
298

>  <Mol Weight>
292.78

>  <Formula>
C14H13ClN2OS

>  <Molecule ChEMBL ID>
CHEMBL473326

>  <Molecule Max Phase>
None

>  <Molecular Weight>
292.79

>  <#RO5 Violations>
0

>  <AlogP>
3.62

>  <Compound Key>
1

>  <Standard Type>
IC50

>  <Standard Relation>
'>'

>  <Standard Value>
20000.0

>  <Standard Units>
nM

$$$$

  Mrv2114 03112311372D          

 21 23  0  0  0  0            999 V2000
   -0.9851   -3.2777    0.0000 C   0  0  0  0  0  0  0  0  0  0  0  0
   -0.1781   -3.1062    0.0000 N   0  0  0  0  0  0  0  0  0  0  0  0
    0.3739   -3.7192    0.0000 C   0  0  0  0  0  0  0  0  0  0  0  0
    0.0768   -2.3215    0.0000 C   0  0  0  0  0  0  0  0  0  0  0  0
   -0.4752   -1.7084    0.0000 O   0  0  0  0  0  0  0  0  0  0  0  0
    0.8838   -2.1500    0.0000 C   0  0  0  0  0  0  0  0  0  0  0  0
    1.1387   -1.3654    0.0000 N   0  0  0  0  0  0  0  0  0  0  0  0
    0.6538   -0.6979    0.0000 C   0  0  0  0  0  0  0  0  0  0  0  0
    1.1387   -0.0305    0.0000 C   0  0  0  0  0  0  0  0  0  0  0  0
    1.9233   -0.2854    0.0000 C   0  0  0  0  0  0  0  0  0  0  0  0
    2.6378    0.1271    0.0000 N   0  0  0  0  0  0  0  0  0  0  0  0
    3.3523   -0.2854    0.0000 C   0  0  0  0  0  0  0  0  0  0  0  0
    3.3523   -1.1104    0.0000 C   0  0  0  0  0  0  0  0  0  0  0  0
    4.0668   -1.5229    0.0000 C   0  0  0  0  0  0  0  0  0  0  0  0
    4.8204   -1.1874    0.0000 C   0  0  0  0  0  0  0  0  0  0  0  0
    5.3725   -1.8005    0.0000 C   0  0  0  0  0  0  0  0  0  0  0  0
    4.9600   -2.5150    0.0000 C   0  0  0  0  0  0  0  0  0  0  0  0
    5.2955   -3.2686    0.0000 Cl  0  0  0  0  0  0  0  0  0  0  0  0
    4.1530   -2.3434    0.0000 S   0  0  0  0  0  0  0  0  0  0  0  0
    2.6378   -1.5229    0.0000 C   0  0  0  0  0  0  0  0  0  0  0  0
    1.9233   -1.1104    0.0000 C   0  0  0  0  0  0  0  0  0  0  0  0
  1  2  1  0  0  0  0
  2  3  1  0  0  0  0
  2  4  1  0  0  0  0
  4  5  2  0  0  0  0
  4  6  1  0  0  0  0
  6  7  1  0  0  0  0
  7  8  4  0  0  0  0
  8  9  4  0  0  0  0
  9 10  4  0  0  0  0
 10 11  4  0  0  0  0
 11 12  4  0  0  0  0
 12 13  4  0  0  0  0
 13 14  1  0  0  0  0
 14 15  4  0  0  0  0
 15 16  4  0  0  0  0
 16 17  4  0  0  0  0
 17 18  1  0  0  0  0
 17 19  4  0  0  0  0
 14 19  4  0  0  0  0
 13 20  4  0  0  0  0
 20 21  4  0  0  0  0
 10 21  4  0  0  0  0
  7 21  4  0  0  0  0
M  END
>  <CdId>
299

>  <Mol Weight>
319.81

>  <Formula>
C15H14ClN3OS

>  <Molecule ChEMBL ID>
CHEMBL4211247

>  <Molecule Max Phase>
None

>  <Molecular Weight>
319.82

>  <#RO5 Violations>
0

>  <AlogP>
3.51

>  <Compound Key>
33

>  <Standard Type>
IC50

>  <Standard Relation>
'>'

>  <Standard Value>
10000.0

>  <Standard Units>
nM

$$$$

  Mrv2114 03112311372D          

 30 33  0  0  1  0            999 V2000
   -2.2673    1.8818    0.0000 C   0  0  0  0  0  0  0  0  0  0  0  0
   -1.4604    1.7103    0.0000 C   0  0  0  0  0  0  0  0  0  0  0  0
   -0.9083    2.3234    0.0000 C   0  0  0  0  0  0  0  0  0  0  0  0
   -0.1014    2.1518    0.0000 C   0  0  0  0  0  0  0  0  0  0  0  0
    0.1536    1.3672    0.0000 N   0  0  0  0  0  0  0  0  0  0  0  0
   -0.3984    0.7541    0.0000 C   0  0  0  0  0  0  0  0  0  0  0  0
   -0.1435   -0.0305    0.0000 N   0  0  0  0  0  0  0  0  0  0  0  0
   -0.6284   -0.6979    0.0000 N   0  0  0  0  0  0  0  0  0  0  0  0
   -0.1435   -1.3654    0.0000 N   0  0  0  0  0  0  0  0  0  0  0  0
    0.6411   -1.1104    0.0000 C   0  0  0  0  0  0  0  0  0  0  0  0
    0.6411   -0.2854    0.0000 C   0  0  0  0  0  0  0  0  0  0  0  0
    1.3556    0.1271    0.0000 C   0  0  0  0  0  0  0  0  0  0  0  0
    2.0701   -0.2854    0.0000 C   0  0  0  0  0  0  0  0  0  0  0  0
    2.0701   -1.1104    0.0000 N   0  0  0  0  0  0  0  0  0  0  0  0
    2.7845   -1.5229    0.0000 C   0  0  0  0  0  0  0  0  0  0  0  0
    2.7845   -2.3479    0.0000 O   0  0  0  0  0  0  0  0  0  0  0  0
    3.4990   -1.1104    0.0000 C   0  0  0  0  0  0  0  0  0  0  0  0
    3.4990   -0.2854    0.0000 C   0  0  0  0  0  0  0  0  0  0  0  0
    4.2135    0.1271    0.0000 C   0  0  0  0  0  0  0  0  0  0  0  0
    4.9279   -0.2854    0.0000 C   0  0  0  0  0  0  0  0  0  0  0  0
    4.9279   -1.1104    0.0000 C   0  0  0  0  0  0  0  0  0  0  0  0
    5.6424   -1.5229    0.0000 C   0  0  0  0  0  0  0  0  0  0  0  0
    6.3569   -1.9354    0.0000 F   0  0  0  0  0  0  0  0  0  0  0  0
    5.2299   -2.2374    0.0000 F   0  0  0  0  0  0  0  0  0  0  0  0
    6.0549   -0.8085    0.0000 F   0  0  0  0  0  0  0  0  0  0  0  0
    4.2135   -1.5229    0.0000 C   0  0  0  0  0  0  0  0  0  0  0  0
    4.2135   -2.3479    0.0000 Cl  0  0  0  0  0  0  0  0  0  0  0  0
    1.3556   -1.5229    0.0000 C   0  0  2  0  0  0  0  0  0  0  0  0
    1.3556   -2.3479    0.0000 C   0  0  0  0  0  0  0  0  0  0  0  0
   -1.2054    0.9256    0.0000 N   0  0  0  0  0  0  0  0  0  0  0  0
  1  2  1  0  0  0  0
  2  3  4  0  0  0  0
  3  4  4  0  0  0  0
  4  5  4  0  0  0  0
  5  6  4  0  0  0  0
  6  7  1  0  0  0  0
  7  8  4  0  0  0  0
  8  9  4  0  0  0  0
  9 10  4  0  0  0  0
 10 11  4  0  0  0  0
  7 11  4  0  0  0  0
 11 12  1  0  0  0  0
 12 13  1  0  0  0  0
 13 14  1  0  0  0  0
 14 15  1  0  0  0  0
 15 16  2  0  0  0  0
 15 17  1  0  0  0  0
 17 18  4  0  0  0  0
 18 19  4  0  0  0  0
 19 20  4  0  0  0  0
 20 21  4  0  0  0  0
 21 22  1  0  0  0  0
 22 23  1  0  0  0  0
 22 24  1  0  0  0  0
 22 25  1  0  0  0  0
 21 26  4  0  0  0  0
 17 26  4  0  0  0  0
 26 27  1  0  0  0  0
 28 14  1  0  0  0  0
 28 10  1  0  0  0  0
 28 29  1  6  0  0  0
  6 30  4  0  0  0  0
  2 30  4  0  0  0  0
M  END
>  <CdId>
300

>  <Mol Weight>
436.82

>  <Formula>
C19H16ClF3N6O

>  <Molecule ChEMBL ID>
CHEMBL4095741

>  <Molecule Max Phase>
None

>  <Molecular Weight>
436.83

>  <#RO5 Violations>
0

>  <AlogP>
3.8

>  <Compound Key>
13

>  <Standard Type>
IC50

>  <Standard Relation>
'>'

>  <Standard Value>
10000.0

>  <Standard Units>
nM

$$$$

  Mrv2114 03112311372D          

 31 34  0  0  1  0            999 V2000
    3.4990    1.9354    0.0000 C   0  0  0  0  0  0  0  0  0  0  0  0
    3.4990    1.1104    0.0000 N   0  0  0  0  0  0  0  0  0  0  0  0
    4.2135    0.6979    0.0000 O   0  0  0  0  0  0  0  0  0  0  0  0
    2.7845    0.6979    0.0000 C   0  0  0  0  0  0  0  0  0  0  0  0
    2.7845   -0.1271    0.0000 O   0  0  0  0  0  0  0  0  0  0  0  0
    2.0701    1.1104    0.0000 C   0  0  0  0  0  0  0  0  0  0  0  0
    1.3556    0.6979    0.0000 C   0  0  0  0  0  0  0  0  0  0  0  0
    0.6411    1.1104    0.0000 C   0  0  0  0  0  0  0  0  0  0  0  0
   -0.1435    0.8555    0.0000 C   0  0  0  0  0  0  0  0  0  0  0  0
   -0.3984    0.0709    0.0000 C   0  0  0  0  0  0  0  0  0  0  0  0
   -1.2054   -0.1006    0.0000 N   0  0  0  0  0  0  0  0  0  0  0  0
   -1.8185    0.4514    0.0000 C   0  0  0  0  0  0  0  0  0  0  0  0
   -2.5330    0.0389    0.0000 C   0  0  0  0  0  0  0  0  0  0  0  0
   -2.3615   -0.7681    0.0000 C   0  0  0  0  0  0  0  0  0  0  0  0
   -1.5410   -0.8543    0.0000 C   0  0  1  0  0  0  0  0  0  0  0  0
   -1.1285   -1.5688    0.0000 C   0  0  0  0  0  0  0  0  0  0  0  0
   -1.5410   -2.2833    0.0000 N   0  0  0  0  0  0  0  0  0  0  0  0
   -0.3035   -1.5688    0.0000 O   0  0  0  0  0  0  0  0  0  0  0  0
   -0.6284    1.5229    0.0000 C   0  0  0  0  0  0  0  0  0  0  0  0
   -0.1435    2.1904    0.0000 N   0  0  0  0  0  0  0  0  0  0  0  0
   -0.3984    2.9750    0.0000 C   0  0  0  0  0  0  0  0  0  0  0  0
    0.1536    3.5881    0.0000 C   0  0  0  0  0  0  0  0  0  0  0  0
   -0.1014    4.3727    0.0000 C   0  0  0  0  0  0  0  0  0  0  0  0
    0.4507    4.9858    0.0000 C   0  0  0  0  0  0  0  0  0  0  0  0
    1.2577    4.8143    0.0000 C   0  0  0  0  0  0  0  0  0  0  0  0
    1.8097    5.4274    0.0000 F   0  0  0  0  0  0  0  0  0  0  0  0
    1.5126    4.0297    0.0000 C   0  0  0  0  0  0  0  0  0  0  0  0
    0.9606    3.4166    0.0000 C   0  0  0  0  0  0  0  0  0  0  0  0
    0.6411    1.9354    0.0000 C   0  0  0  0  0  0  0  0  0  0  0  0
    1.3556    2.3479    0.0000 C   0  0  0  0  0  0  0  0  0  0  0  0
    2.0701    1.9354    0.0000 N   0  0  0  0  0  0  0  0  0  0  0  0
  1  2  1  0  0  0  0
  2  3  1  0  0  0  0
  2  4  1  0  0  0  0
  4  5  2  0  0  0  0
  4  6  1  0  0  0  0
  6  7  4  0  0  0  0
  7  8  4  0  0  0  0
  8  9  4  0  0  0  0
  9 10  1  0  0  0  0
 10 11  1  0  0  0  0
 11 12  1  0  0  0  0
 12 13  1  0  0  0  0
 13 14  1  0  0  0  0
 15 14  1  0  0  0  0
 15 11  1  0  0  0  0
 15 16  1  6  0  0  0
 16 17  1  0  0  0  0
 16 18  2  0  0  0  0
  9 19  4  0  0  0  0
 19 20  4  0  0  0  0
 20 21  1  0  0  0  0
 21 22  1  0  0  0  0
 22 23  4  0  0  0  0
 23 24  4  0  0  0  0
 24 25  4  0  0  0  0
 25 26  1  0  0  0  0
 25 27  4  0  0  0  0
 27 28  4  0  0  0  0
 22 28  4  0  0  0  0
 20 29  4  0  0  0  0
  8 29  4  0  0  0  0
 29 30  4  0  0  0  0
 30 31  4  0  0  0  0
  6 31  4  0  0  0  0
M  END
>  <CdId>
301

>  <Mol Weight>
425.464

>  <Formula>
C22H24FN5O3

>  <Molecule ChEMBL ID>
CHEMBL1289313

>  <Molecule Max Phase>
None

>  <Molecular Weight>
425.46

>  <#RO5 Violations>
0

>  <AlogP>
2.13

>  <Compound Key>
10e

>  <Standard Type>
IC50

>  <Standard Relation>
'>'

>  <Standard Value>
30000.0

>  <Standard Units>
nM

$$$$

  Mrv2114 03112311372D          

 29 31  0  0  1  0            999 V2000
    2.8579    0.0000    0.0000 C   0  0  0  0  0  0  0  0  0  0  0  0
    3.5724    0.4125    0.0000 C   0  0  0  0  0  0  0  0  0  0  0  0
    4.2868    0.0000    0.0000 C   0  0  0  0  0  0  0  0  0  0  0  0
    5.0013    0.4125    0.0000 C   0  0  0  0  0  0  0  0  0  0  0  0
    5.7158    0.0000    0.0000 N   0  0  0  0  0  0  0  0  0  0  0  0
    6.4302    0.4125    0.0000 C   0  0  0  0  0  0  0  0  0  0  0  0
    6.4302    1.2375    0.0000 N   0  0  0  0  0  0  0  0  0  0  0  0
    7.1447    1.6500    0.0000 C   0  0  0  0  0  0  0  0  0  0  0  0
    7.1447    2.4750    0.0000 N   0  0  0  0  0  0  0  0  0  0  0  0
    7.8592    1.2375    0.0000 N   0  0  0  0  0  0  0  0  0  0  0  0
    7.8592    0.4125    0.0000 C   0  0  0  0  0  0  0  0  0  0  0  0
    8.5737    0.0000    0.0000 C   0  0  0  0  0  0  0  0  0  0  0  0
    8.5737   -0.8250    0.0000 C   0  0  0  0  0  0  0  0  0  0  0  0
    7.8592   -1.2375    0.0000 C   0  0  0  0  0  0  0  0  0  0  0  0
    7.1447   -0.8250    0.0000 C   0  0  0  0  0  0  0  0  0  0  0  0
    6.4302   -1.2375    0.0000 C   0  0  0  0  0  0  0  0  0  0  0  0
    6.4302   -2.0625    0.0000 O   0  0  0  0  0  0  0  0  0  0  0  0
    5.7158   -0.8250    0.0000 N   0  0  0  0  0  0  0  0  0  0  0  0
    5.0013   -1.2375    0.0000 C   0  0  1  0  0  0  0  0  0  0  0  0
    4.2868   -0.8250    0.0000 C   0  0  0  0  0  0  0  0  0  0  0  0
    5.0013   -2.0625    0.0000 C   0  0  0  0  0  0  0  0  0  0  0  0
    5.7158   -2.4750    0.0000 C   0  0  0  0  0  0  0  0  0  0  0  0
    5.7158   -3.3000    0.0000 C   0  0  0  0  0  0  0  0  0  0  0  0
    5.0013   -3.7125    0.0000 C   0  0  0  0  0  0  0  0  0  0  0  0
    4.2868   -3.3000    0.0000 C   0  0  0  0  0  0  0  0  0  0  0  0
    4.2868   -2.4750    0.0000 C   0  0  0  0  0  0  0  0  0  0  0  0
    3.5724   -2.0625    0.0000 O   0  0  0  0  0  0  0  0  0  0  0  0
    3.5724   -1.2375    0.0000 C   0  0  0  0  0  0  0  0  0  0  0  0
    7.1447    0.0000    0.0000 C   0  0  0  0  0  0  0  0  0  0  0  0
  1  2  1  0  0  0  0
  2  3  1  0  0  0  0
  3  4  1  0  0  0  0
  4  5  1  0  0  0  0
  5  6  1  0  0  0  0
  6  7  4  0  0  0  0
  7  8  4  0  0  0  0
  8  9  1  0  0  0  0
  8 10  4  0  0  0  0
 10 11  4  0  0  0  0
 11 12  4  0  0  0  0
 12 13  4  0  0  0  0
 13 14  4  0  0  0  0
 14 15  4  0  0  0  0
 15 16  1  0  0  0  0
 16 17  2  0  0  0  0
 16 18  1  0  0  0  0
 19 18  1  0  0  0  0
 19 20  1  6  0  0  0
 19 21  1  0  0  0  0
 21 22  4  0  0  0  0
 22 23  4  0  0  0  0
 23 24  4  0  0  0  0
 24 25  4  0  0  0  0
 25 26  4  0  0  0  0
 21 26  4  0  0  0  0
 26 27  1  0  0  0  0
 27 28  1  0  0  0  0
 15 29  4  0  0  0  0
  6 29  4  0  0  0  0
 11 29  4  0  0  0  0
M  END
>  <CdId>
302

>  <Mol Weight>
393.491

>  <Formula>
C22H27N5O2

>  <Molecule ChEMBL ID>
CHEMBL4217425

>  <Molecule Max Phase>
None

>  <Molecular Weight>
393.49

>  <#RO5 Violations>
0

>  <AlogP>
3.92

>  <Compound Key>
50

>  <Standard Type>
IC50

$$$$

  Mrv2114 03112311372D          

 36 40  0  0  1  0            999 V2000
   -7.0582   -0.1664    0.0000 C   0  0  0  0  0  0  0  0  0  0  0  0
   -6.3907    0.3185    0.0000 C   0  0  0  0  0  0  0  0  0  0  0  0
   -6.3907    1.1435    0.0000 N   0  0  0  0  0  0  0  0  0  0  0  0
   -5.6061    1.3984    0.0000 C   0  0  0  0  0  0  0  0  0  0  0  0
   -5.1212    0.7310    0.0000 N   0  0  0  0  0  0  0  0  0  0  0  0
   -4.2962    0.7310    0.0000 C   0  0  0  0  0  0  0  0  0  0  0  0
   -3.8837    1.4455    0.0000 C   0  0  0  0  0  0  0  0  0  0  0  0
   -3.0587    1.4455    0.0000 C   0  0  0  0  0  0  0  0  0  0  0  0
   -2.6462    2.1599    0.0000 Cl  0  0  0  0  0  0  0  0  0  0  0  0
   -2.6462    0.7310    0.0000 C   0  0  0  0  0  0  0  0  0  0  0  0
   -1.8212    0.7310    0.0000 C   0  0  0  0  0  0  0  0  0  0  0  0
   -1.4087    1.4455    0.0000 O   0  0  0  0  0  0  0  0  0  0  0  0
   -1.4087    0.0165    0.0000 N   0  0  0  0  0  0  0  0  0  0  0  0
   -0.5837    0.0165    0.0000 C   0  0  0  0  0  0  0  0  0  0  0  0
   -0.1712   -0.6979    0.0000 C   0  0  1  0  0  0  0  0  0  0  0  0
   -0.5837   -1.4124    0.0000 C   0  0  0  0  0  0  0  0  0  0  0  0
   -0.1712   -2.1269    0.0000 C   0  0  0  0  0  0  0  0  0  0  0  0
   -0.5837   -2.8414    0.0000 C   0  0  0  0  0  0  0  0  0  0  0  0
   -1.4087   -2.8414    0.0000 C   0  0  0  0  0  0  0  0  0  0  0  0
   -1.8212   -2.1269    0.0000 C   0  0  0  0  0  0  0  0  0  0  0  0
   -2.6462   -2.1269    0.0000 F   0  0  0  0  0  0  0  0  0  0  0  0
   -1.4087   -1.4124    0.0000 C   0  0  0  0  0  0  0  0  0  0  0  0
    0.6538   -0.6979    0.0000 C   0  0  0  0  0  0  0  0  0  0  0  0
    1.1387   -0.0305    0.0000 N   0  0  0  0  0  0  0  0  0  0  0  0
    1.9233   -0.2854    0.0000 C   0  0  0  0  0  0  0  0  0  0  0  0
    2.6378    0.1271    0.0000 C   0  0  0  0  0  0  0  0  0  0  0  0
    3.3523   -0.2854    0.0000 C   0  0  0  0  0  0  0  0  0  0  0  0
    3.3523   -1.1104    0.0000 C   0  0  0  0  0  0  0  0  0  0  0  0
    4.0668   -1.5229    0.0000 Cl  0  0  0  0  0  0  0  0  0  0  0  0
    2.6378   -1.5229    0.0000 C   0  0  0  0  0  0  0  0  0  0  0  0
    1.9233   -1.1104    0.0000 C   0  0  0  0  0  0  0  0  0  0  0  0
    1.1387   -1.3654    0.0000 N   0  0  0  0  0  0  0  0  0  0  0  0
   -3.0587    0.0165    0.0000 C   0  0  0  0  0  0  0  0  0  0  0  0
   -2.6462   -0.6979    0.0000 Cl  0  0  0  0  0  0  0  0  0  0  0  0
   -3.8837    0.0165    0.0000 C   0  0  0  0  0  0  0  0  0  0  0  0
   -5.6061    0.0636    0.0000 N   0  0  0  0  0  0  0  0  0  0  0  0
  1  2  1  0  0  0  0
  2  3  4  0  0  0  0
  3  4  4  0  0  0  0
  4  5  4  0  0  0  0
  5  6  1  0  0  0  0
  6  7  4  0  0  0  0
  7  8  4  0  0  0  0
  8  9  1  0  0  0  0
  8 10  4  0  0  0  0
 10 11  1  0  0  0  0
 11 12  2  0  0  0  0
 11 13  1  0  0  0  0
 13 14  1  0  0  0  0
 15 14  1  6  0  0  0
 15 16  1  0  0  0  0
 16 17  4  0  0  0  0
 17 18  4  0  0  0  0
 18 19  4  0  0  0  0
 19 20  4  0  0  0  0
 20 21  1  0  0  0  0
 20 22  4  0  0  0  0
 16 22  4  0  0  0  0
 15 23  1  0  0  0  0
 23 24  4  0  0  0  0
 24 25  4  0  0  0  0
 25 26  4  0  0  0  0
 26 27  4  0  0  0  0
 27 28  4  0  0  0  0
 28 29  1  0  0  0  0
 28 30  4  0  0  0  0
 30 31  4  0  0  0  0
 25 31  4  0  0  0  0
 31 32  4  0  0  0  0
 23 32  4  0  0  0  0
 10 33  4  0  0  0  0
 33 34  1  0  0  0  0
 33 35  4  0  0  0  0
  6 35  4  0  0  0  0
  5 36  4  0  0  0  0
  2 36  4  0  0  0  0
M  STY  1   1 DAT
M  SAL   1  1  32
M  SDT   1 MRV_IMPLICIT_H                                        
M  SDD   1     0.0000    0.0000    DR    ALL  0       0  
M  SED   1 IMPL_H1
M  END
>  <CdId>
303

>  <Mol Weight>
543.81

>  <Formula>
C25H18Cl3FN6O

>  <Molecule ChEMBL ID>
CHEMBL3627895

>  <Molecule Max Phase>
None

>  <Molecular Weight>
543.82

>  <#RO5 Violations>
2

>  <AlogP>
6.11

>  <Compound Key>
25

>  <Standard Type>
IC50

>  <Standard Relation>
'='

>  <Standard Value>
5280.0

>  <Standard Units>
nM

$$$$

  Mrv2114 03112311372D          

 26 29  0  0  0  0            999 V2000
    4.7812    1.9354    0.0000 C   0  0  0  0  0  0  0  0  0  0  0  0
    4.0668    2.3479    0.0000 O   0  0  0  0  0  0  0  0  0  0  0  0
    3.3523    1.9354    0.0000 C   0  0  0  0  0  0  0  0  0  0  0  0
    3.3523    1.1104    0.0000 C   0  0  0  0  0  0  0  0  0  0  0  0
    2.6378    0.6979    0.0000 C   0  0  0  0  0  0  0  0  0  0  0  0
    1.9233    1.1104    0.0000 C   0  0  0  0  0  0  0  0  0  0  0  0
    1.1387    0.8555    0.0000 N   0  0  0  0  0  0  0  0  0  0  0  0
    0.6538    1.5229    0.0000 C   0  0  0  0  0  0  0  0  0  0  0  0
   -0.1712    1.5229    0.0000 S   0  0  0  0  0  0  0  0  0  0  0  0
   -0.5837    2.2374    0.0000 C   0  0  0  0  0  0  0  0  0  0  0  0
   -1.4087    2.2374    0.0000 C   0  0  0  0  0  0  0  0  0  0  0  0
   -1.8212    1.5229    0.0000 C   0  0  0  0  0  0  0  0  0  0  0  0
   -2.6462    1.5229    0.0000 C   0  0  0  0  0  0  0  0  0  0  0  0
   -3.0587    2.2374    0.0000 C   0  0  0  0  0  0  0  0  0  0  0  0
   -2.6462    2.9519    0.0000 C   0  0  0  0  0  0  0  0  0  0  0  0
   -3.0587    3.6664    0.0000 O   0  0  0  0  0  0  0  0  0  0  0  0
   -2.6462    4.3808    0.0000 C   0  0  0  0  0  0  0  0  0  0  0  0
   -3.0587    5.0953    0.0000 C   0  0  0  0  0  0  0  0  0  0  0  0
   -2.6462    5.8098    0.0000 C   0  0  0  0  0  0  0  0  0  0  0  0
   -1.8212    5.8098    0.0000 C   0  0  0  0  0  0  0  0  0  0  0  0
   -1.4087    5.0953    0.0000 C   0  0  0  0  0  0  0  0  0  0  0  0
   -1.8212    4.3808    0.0000 C   0  0  0  0  0  0  0  0  0  0  0  0
   -1.8212    2.9519    0.0000 C   0  0  0  0  0  0  0  0  0  0  0  0
    1.1387    2.1904    0.0000 N   0  0  0  0  0  0  0  0  0  0  0  0
    1.9233    1.9354    0.0000 C   0  0  0  0  0  0  0  0  0  0  0  0
    2.6378    2.3479    0.0000 C   0  0  0  0  0  0  0  0  0  0  0  0
  1  2  1  0  0  0  0
  2  3  1  0  0  0  0
  3  4  4  0  0  0  0
  4  5  4  0  0  0  0
  5  6  4  0  0  0  0
  6  7  4  0  0  0  0
  7  8  4  0  0  0  0
  8  9  1  0  0  0  0
  9 10  1  0  0  0  0
 10 11  1  0  0  0  0
 11 12  4  0  0  0  0
 12 13  4  0  0  0  0
 13 14  4  0  0  0  0
 14 15  4  0  0  0  0
 15 16  1  0  0  0  0
 16 17  1  0  0  0  0
 17 18  4  0  0  0  0
 18 19  4  0  0  0  0
 19 20  4  0  0  0  0
 20 21  4  0  0  0  0
 21 22  4  0  0  0  0
 17 22  4  0  0  0  0
 15 23  4  0  0  0  0
 11 23  4  0  0  0  0
  8 24  4  0  0  0  0
 24 25  4  0  0  0  0
  6 25  4  0  0  0  0
 25 26  4  0  0  0  0
  3 26  4  0  0  0  0
M  STY  1   1 DAT
M  SAL   1  1   7
M  SDT   1 MRV_IMPLICIT_H                                        
M  SDD   1     0.0000    0.0000    DR    ALL  0       0  
M  SED   1 IMPL_H1
M  END
>  <CdId>
304

>  <Mol Weight>
362.45

>  <Formula>
C21H18N2O2S

>  <Molecule ChEMBL ID>
CHEMBL2018925

>  <Molecule Max Phase>
None

>  <Molecular Weight>
362.45

>  <#RO5 Violations>
1

>  <AlogP>
5.66

>  <Compound Key>
25

>  <Standard Type>
IC50

>  <Standard Relation>
'>'

>  <Standard Value>
50000.0

>  <Standard Units>
nM

$$$$

  Mrv2114 03112311372D          

 30 33  0  0  0  0            999 V2000
    2.1434   -3.7125    0.0000 C   0  0  0  0  0  0  0  0  0  0  0  0
    2.8579   -4.1250    0.0000 O   0  0  0  0  0  0  0  0  0  0  0  0
    2.8579   -4.9500    0.0000 C   0  0  0  0  0  0  0  0  0  0  0  0
    3.5724   -5.3625    0.0000 C   0  0  0  0  0  0  0  0  0  0  0  0
    3.5724   -6.1875    0.0000 C   0  0  0  0  0  0  0  0  0  0  0  0
    4.2868   -6.6000    0.0000 C   0  0  0  0  0  0  0  0  0  0  0  0
    5.0013   -6.1875    0.0000 C   0  0  0  0  0  0  0  0  0  0  0  0
    5.7158   -6.6000    0.0000 N   0  0  0  0  0  0  0  0  0  0  0  0
    5.7158   -7.4250    0.0000 C   0  0  0  0  0  0  0  0  0  0  0  0
    5.0013   -7.8375    0.0000 C   0  0  0  0  0  0  0  0  0  0  0  0
    5.0013   -8.6625    0.0000 C   0  0  0  0  0  0  0  0  0  0  0  0
    5.7158   -9.0750    0.0000 C   0  0  0  0  0  0  0  0  0  0  0  0
    5.7158   -9.9000    0.0000 C   0  0  0  0  0  0  0  0  0  0  0  0
    5.0013  -10.3125    0.0000 C   0  0  0  0  0  0  0  0  0  0  0  0
    5.0013  -11.1375    0.0000 N   0  0  0  0  0  0  0  0  0  0  0  0
    5.7158  -11.5500    0.0000 C   0  0  0  0  0  0  0  0  0  0  0  0
    5.7158  -12.3750    0.0000 C   0  0  0  0  0  0  0  0  0  0  0  0
    5.0013  -12.7875    0.0000 N   0  0  0  0  0  0  0  0  0  0  0  0
    4.2868  -12.3750    0.0000 C   0  0  0  0  0  0  0  0  0  0  0  0
    4.2868  -11.5500    0.0000 C   0  0  0  0  0  0  0  0  0  0  0  0
    4.2868   -9.9000    0.0000 C   0  0  0  0  0  0  0  0  0  0  0  0
    4.2868   -9.0750    0.0000 C   0  0  0  0  0  0  0  0  0  0  0  0
    4.2868   -7.4250    0.0000 C   0  0  0  0  0  0  0  0  0  0  0  0
    3.5724   -7.8375    0.0000 C   0  0  0  0  0  0  0  0  0  0  0  0
    2.8579   -6.6000    0.0000 C   0  0  0  0  0  0  0  0  0  0  0  0
    2.1434   -6.1875    0.0000 C   0  0  0  0  0  0  0  0  0  0  0  0
    1.4289   -6.6000    0.0000 O   0  0  0  0  0  0  0  0  0  0  0  0
    0.7145   -6.1875    0.0000 C   0  0  0  0  0  0  0  0  0  0  0  0
    2.1434   -5.3625    0.0000 C   0  0  0  0  0  0  0  0  0  0  0  0
    1.4289   -4.9500    0.0000 F   0  0  0  0  0  0  0  0  0  0  0  0
  1  2  1  0  0  0  0
  2  3  1  0  0  0  0
  3  4  4  0  0  0  0
  4  5  4  0  0  0  0
  5  6  1  0  0  0  0
  6  7  4  0  0  0  0
  7  8  4  0  0  0  0
  8  9  4  0  0  0  0
  9 10  4  0  0  0  0
 10 11  1  0  0  0  0
 11 12  4  0  0  0  0
 12 13  4  0  0  0  0
 13 14  4  0  0  0  0
 14 15  1  0  0  0  0
 15 16  1  0  0  0  0
 16 17  1  0  0  0  0
 17 18  1  0  0  0  0
 18 19  1  0  0  0  0
 19 20  1  0  0  0  0
 15 20  1  0  0  0  0
 14 21  4  0  0  0  0
 21 22  4  0  0  0  0
 11 22  4  0  0  0  0
 10 23  4  0  0  0  0
  6 23  4  0  0  0  0
 23 24  1  0  0  0  0
  5 25  4  0  0  0  0
 25 26  4  0  0  0  0
 26 27  1  0  0  0  0
 27 28  1  0  0  0  0
 26 29  4  0  0  0  0
  3 29  4  0  0  0  0
 29 30  1  0  0  0  0
M  END
>  <CdId>
305

>  <Mol Weight>
407.489

>  <Formula>
C24H26FN3O2

>  <Molecule ChEMBL ID>
CHEMBL4636120

>  <Molecule Max Phase>
None

>  <Molecular Weight>
407.49

>  <#RO5 Violations>
0

>  <AlogP>
4.29

>  <Compound Key>
11b; M4K2163

>  <Standard Type>
IC50

>  <Standard Relation>
'>'

>  <Standard Value>
20000.0

>  <Standard Units>
nM

$$$$

  Mrv2114 03112311372D          

 44 49  0  0  1  0            999 V2000
   -0.7145   -7.0125    0.0000 C   0  0  0  0  0  0  0  0  0  0  0  0
   -0.7145   -6.1875    0.0000 N   0  0  0  0  0  0  0  0  0  0  0  0
   -1.4289   -5.7750    0.0000 C   0  0  1  0  0  0  0  0  0  0  0  0
   -2.1434   -6.1875    0.0000 C   0  0  0  0  0  0  0  0  0  0  0  0
   -1.4289   -4.9500    0.0000 C   0  0  0  0  0  0  0  0  0  0  0  0
   -0.7145   -4.5375    0.0000 O   0  0  0  0  0  0  0  0  0  0  0  0
   -2.1434   -4.5375    0.0000 N   0  0  0  0  0  0  0  0  0  0  0  0
   -2.1434   -3.7125    0.0000 C   0  0  0  0  0  0  0  0  0  0  0  0
   -2.8579   -3.3000    0.0000 C   0  0  0  0  0  0  0  0  0  0  0  0
   -2.8579   -2.4750    0.0000 C   0  0  0  0  0  0  0  0  0  0  0  0
   -2.1434   -2.0625    0.0000 C   0  0  0  0  0  0  0  0  0  0  0  0
   -2.1434   -1.2375    0.0000 C   0  0  0  0  0  0  0  0  0  0  0  0
   -2.8109   -0.7526    0.0000 C   0  0  0  0  0  0  0  0  0  0  0  0
   -3.5955   -1.0075    0.0000 C   0  0  0  0  0  0  0  0  0  0  0  0
   -3.7670   -1.8145    0.0000 C   0  0  0  0  0  0  0  0  0  0  0  0
   -4.5516   -2.0694    0.0000 C   0  0  0  0  0  0  0  0  0  0  0  0
   -5.1647   -1.5174    0.0000 N   0  0  0  0  0  0  0  0  0  0  0  0
   -4.9932   -0.7104    0.0000 C   0  0  0  0  0  0  0  0  0  0  0  0
   -5.6063   -0.1584    0.0000 O   0  0  0  0  0  0  0  0  0  0  0  0
   -6.3909   -0.4133    0.0000 C   0  0  0  0  0  0  0  0  0  0  0  0
   -4.2086   -0.4555    0.0000 C   0  0  0  0  0  0  0  0  0  0  0  0
   -2.5559    0.0320    0.0000 N   0  0  0  0  0  0  0  0  0  0  0  0
   -1.7309    0.0320    0.0000 C   0  0  0  0  0  0  0  0  0  0  0  0
   -1.1789    0.6451    0.0000 C   0  0  0  0  0  0  0  0  0  0  0  0
   -0.3719    0.4736    0.0000 C   0  0  0  0  0  0  0  0  0  0  0  0
    0.1801    1.0867    0.0000 C   0  0  0  0  0  0  0  0  0  0  0  0
   -0.1170   -0.3110    0.0000 C   0  0  0  0  0  0  0  0  0  0  0  0
   -0.6690   -0.9241    0.0000 C   0  0  0  0  0  0  0  0  0  0  0  0
   -1.4760   -0.7526    0.0000 N   0  0  0  0  0  0  0  0  0  0  0  0
   -1.4289   -2.4750    0.0000 C   0  0  0  0  0  0  0  0  0  0  0  0
   -0.7145   -2.0625    0.0000 C   0  0  0  0  0  0  0  0  0  0  0  0
    0.0000   -1.6500    0.0000 C   0  0  0  0  0  0  0  0  0  0  0  0
    0.7145   -1.2375    0.0000 C   0  0  0  0  0  0  0  0  0  0  0  0
    0.7145   -0.4125    0.0000 C   0  0  0  0  0  0  0  0  0  0  0  0
    1.4289    0.0000    0.0000 C   0  0  0  0  0  0  0  0  0  0  0  0
    2.1434   -0.4125    0.0000 C   0  0  0  0  0  0  0  0  0  0  0  0
    2.8579    0.0000    0.0000 C   0  0  0  0  0  0  0  0  0  0  0  0
    2.8579    0.8250    0.0000 C   0  0  0  0  0  0  0  0  0  0  0  0
    3.5724   -0.4125    0.0000 N   0  0  0  0  0  0  0  0  0  0  0  0
    3.5724   -1.2375    0.0000 C   0  0  0  0  0  0  0  0  0  0  0  0
    2.8579   -1.6500    0.0000 C   0  0  0  0  0  0  0  0  0  0  0  0
    2.1434   -1.2375    0.0000 C   0  0  0  0  0  0  0  0  0  0  0  0
    1.4289   -1.6500    0.0000 C   0  0  0  0  0  0  0  0  0  0  0  0
   -1.4289   -3.3000    0.0000 N   0  0  0  0  0  0  0  0  0  0  0  0
  1  2  1  0  0  0  0
  3  2  1  0  0  0  0
  3  4  1  1  0  0  0
  3  5  1  0  0  0  0
  5  6  2  0  0  0  0
  5  7  1  0  0  0  0
  7  8  1  0  0  0  0
  8  9  4  0  0  0  0
  9 10  4  0  0  0  0
 10 11  4  0  0  0  0
 11 12  1  0  0  0  0
 12 13  4  0  0  0  0
 13 14  1  0  0  0  0
 14 15  4  0  0  0  0
 15 16  4  0  0  0  0
 16 17  4  0  0  0  0
 17 18  4  0  0  0  0
 18 19  1  0  0  0  0
 19 20  1  0  0  0  0
 18 21  4  0  0  0  0
 14 21  4  0  0  0  0
 13 22  4  0  0  0  0
 22 23  4  0  0  0  0
 23 24  4  0  0  0  0
 24 25  4  0  0  0  0
 25 26  1  0  0  0  0
 25 27  4  0  0  0  0
 27 28  4  0  0  0  0
 28 29  4  0  0  0  0
 12 29  4  0  0  0  0
 23 29  4  0  0  0  0
 11 30  4  0  0  0  0
 30 31  1  0  0  0  0
 31 32  3  0  0  0  0
 32 33  1  0  0  0  0
 33 34  4  0  0  0  0
 34 35  4  0  0  0  0
 35 36  4  0  0  0  0
 36 37  4  0  0  0  0
 37 38  1  0  0  0  0
 37 39  4  0  0  0  0
 39 40  4  0  0  0  0
 40 41  4  0  0  0  0
 41 42  4  0  0  0  0
 36 42  4  0  0  0  0
 42 43  4  0  0  0  0
 33 43  4  0  0  0  0
 30 44  4  0  0  0  0
  8 44  4  0  0  0  0
M  END
>  <CdId>
306

>  <Mol Weight>
581.68

>  <Formula>
C35H31N7O2

>  <Molecule ChEMBL ID>
CHEMBL3928571

>  <Molecule Max Phase>
None

>  <Molecular Weight>
581.68

>  <#RO5 Violations>
2

>  <AlogP>
5.58

>  <Compound Key>
BDBM253998

>  <Standard Type>
IC50

>  <Standard Relation>
'='

>  <Standard Value>
1600.0

>  <Standard Units>
nM

$$$$

  Mrv2114 03112311372D          

 23 25  0  0  0  0            999 V2000
   -3.8837    1.4455    0.0000 C   0  0  0  0  0  0  0  0  0  0  0  0
   -3.0587    1.4455    0.0000 O   0  0  0  0  0  0  0  0  0  0  0  0
   -2.6462    0.7310    0.0000 C   0  0  0  0  0  0  0  0  0  0  0  0
   -1.8212    0.7310    0.0000 C   0  0  0  0  0  0  0  0  0  0  0  0
   -1.4087    0.0165    0.0000 C   0  0  0  0  0  0  0  0  0  0  0  0
   -0.5837    0.0165    0.0000 C   0  0  0  0  0  0  0  0  0  0  0  0
   -0.1712   -0.6979    0.0000 S   0  0  0  0  0  0  0  0  0  0  0  0
    0.6538   -0.6979    0.0000 C   0  0  0  0  0  0  0  0  0  0  0  0
    1.1387   -0.0305    0.0000 N   0  0  0  0  0  0  0  0  0  0  0  0
    1.9233   -0.2854    0.0000 C   0  0  0  0  0  0  0  0  0  0  0  0
    2.6378    0.1271    0.0000 C   0  0  0  0  0  0  0  0  0  0  0  0
    3.3523   -0.2854    0.0000 C   0  0  0  0  0  0  0  0  0  0  0  0
    3.3523   -1.1104    0.0000 C   0  0  0  0  0  0  0  0  0  0  0  0
    4.0668   -1.5229    0.0000 O   0  0  0  0  0  0  0  0  0  0  0  0
    4.7812   -1.1104    0.0000 C   0  0  0  0  0  0  0  0  0  0  0  0
    2.6378   -1.5229    0.0000 C   0  0  0  0  0  0  0  0  0  0  0  0
    1.9233   -1.1104    0.0000 C   0  0  0  0  0  0  0  0  0  0  0  0
    1.1387   -1.3654    0.0000 N   0  0  0  0  0  0  0  0  0  0  0  0
   -1.8212   -0.6979    0.0000 C   0  0  0  0  0  0  0  0  0  0  0  0
   -2.6462   -0.6979    0.0000 C   0  0  0  0  0  0  0  0  0  0  0  0
   -3.0587   -1.4124    0.0000 O   0  0  0  0  0  0  0  0  0  0  0  0
   -3.8837   -1.4124    0.0000 C   0  0  0  0  0  0  0  0  0  0  0  0
   -3.0587    0.0165    0.0000 C   0  0  0  0  0  0  0  0  0  0  0  0
  1  2  1  0  0  0  0
  2  3  1  0  0  0  0
  3  4  4  0  0  0  0
  4  5  4  0  0  0  0
  5  6  1  0  0  0  0
  6  7  1  0  0  0  0
  7  8  1  0  0  0  0
  8  9  4  0  0  0  0
  9 10  4  0  0  0  0
 10 11  4  0  0  0  0
 11 12  4  0  0  0  0
 12 13  4  0  0  0  0
 13 14  1  0  0  0  0
 14 15  1  0  0  0  0
 13 16  4  0  0  0  0
 16 17  4  0  0  0  0
 10 17  4  0  0  0  0
 17 18  4  0  0  0  0
  8 18  4  0  0  0  0
  5 19  4  0  0  0  0
 19 20  4  0  0  0  0
 20 21  1  0  0  0  0
 21 22  1  0  0  0  0
 20 23  4  0  0  0  0
  3 23  4  0  0  0  0
M  STY  1   1 DAT
M  SAL   1  1  18
M  SDT   1 MRV_IMPLICIT_H                                        
M  SDD   1     0.0000    0.0000    DR    ALL  0       0  
M  SED   1 IMPL_H1
M  END
>  <CdId>
307

>  <Mol Weight>
330.4

>  <Formula>
C17H18N2O3S

>  <Molecule ChEMBL ID>
CHEMBL488400

>  <Molecule Max Phase>
None

>  <Molecular Weight>
330.41

>  <#RO5 Violations>
0

>  <AlogP>
3.88

>  <Compound Key>
21

>  <Standard Type>
IC50

>  <Standard Relation>
'='

>  <Standard Value>
3350.0

>  <Standard Units>
nM

$$$$

  Mrv2114 03112311372D          

 19 21  0  0  0  0            999 V2000
    4.7812    1.9354    0.0000 C   0  0  0  0  0  0  0  0  0  0  0  0
    4.0668    2.3479    0.0000 O   0  0  0  0  0  0  0  0  0  0  0  0
    3.3523    1.9354    0.0000 C   0  0  0  0  0  0  0  0  0  0  0  0
    3.3523    1.1104    0.0000 C   0  0  0  0  0  0  0  0  0  0  0  0
    2.6378    0.6979    0.0000 C   0  0  0  0  0  0  0  0  0  0  0  0
    1.9233    1.1104    0.0000 C   0  0  0  0  0  0  0  0  0  0  0  0
    1.1387    0.8555    0.0000 N   0  0  0  0  0  0  0  0  0  0  0  0
    0.6538    1.5229    0.0000 C   0  0  0  0  0  0  0  0  0  0  0  0
   -0.1712    1.5229    0.0000 S   0  0  0  0  0  0  0  0  0  0  0  0
   -0.5837    0.8085    0.0000 C   0  0  0  0  0  0  0  0  0  0  0  0
   -1.4087    0.8085    0.0000 C   0  0  0  0  0  0  0  0  0  0  0  0
   -1.8212    0.0940    0.0000 C   0  0  0  0  0  0  0  0  0  0  0  0
   -2.6462    0.0940    0.0000 C   0  0  0  0  0  0  0  0  0  0  0  0
   -3.0587    0.8085    0.0000 C   0  0  0  0  0  0  0  0  0  0  0  0
   -2.6462    1.5229    0.0000 C   0  0  0  0  0  0  0  0  0  0  0  0
   -1.8212    1.5229    0.0000 C   0  0  0  0  0  0  0  0  0  0  0  0
    1.1387    2.1904    0.0000 N   0  0  0  0  0  0  0  0  0  0  0  0
    1.9233    1.9354    0.0000 C   0  0  0  0  0  0  0  0  0  0  0  0
    2.6378    2.3479    0.0000 C   0  0  0  0  0  0  0  0  0  0  0  0
  1  2  1  0  0  0  0
  2  3  1  0  0  0  0
  3  4  4  0  0  0  0
  4  5  4  0  0  0  0
  5  6  4  0  0  0  0
  6  7  4  0  0  0  0
  7  8  4  0  0  0  0
  8  9  1  0  0  0  0
  9 10  1  0  0  0  0
 10 11  1  0  0  0  0
 11 12  4  0  0  0  0
 12 13  4  0  0  0  0
 13 14  4  0  0  0  0
 14 15  4  0  0  0  0
 15 16  4  0  0  0  0
 11 16  4  0  0  0  0
  8 17  4  0  0  0  0
 17 18  4  0  0  0  0
  6 18  4  0  0  0  0
 18 19  4  0  0  0  0
  3 19  4  0  0  0  0
M  STY  1   1 DAT
M  SAL   1  1   7
M  SDT   1 MRV_IMPLICIT_H                                        
M  SDD   1     0.0000    0.0000    DR    ALL  0       0  
M  SED   1 IMPL_H1
M  END
>  <CdId>
308

>  <Mol Weight>
270.35

>  <Formula>
C15H14N2OS

>  <Molecule ChEMBL ID>
CHEMBL2018915

>  <Molecule Max Phase>
None

>  <Molecular Weight>
270.36

>  <#RO5 Violations>
0

>  <AlogP>
3.86

>  <Compound Key>
13

>  <Standard Type>
IC50

>  <Standard Relation>
'>'

>  <Standard Value>
50000.0

>  <Standard Units>
nM

$$$$

  Mrv2114 03112311372D          

 16 17  0  0  0  0            999 V2000
   -1.8532    0.4242    0.0000 C   0  0  0  0  0  0  0  0  0  0  0  0
   -1.0282    0.4242    0.0000 O   0  0  0  0  0  0  0  0  0  0  0  0
   -0.6157    1.1387    0.0000 C   0  0  0  0  0  0  0  0  0  0  0  0
   -1.0282    1.8532    0.0000 C   0  0  0  0  0  0  0  0  0  0  0  0
   -0.6157    2.5676    0.0000 C   0  0  0  0  0  0  0  0  0  0  0  0
    0.2093    2.5676    0.0000 C   0  0  0  0  0  0  0  0  0  0  0  0
    0.7614    3.1807    0.0000 N   0  0  0  0  0  0  0  0  0  0  0  0
    1.5150    2.8452    0.0000 C   0  0  0  0  0  0  0  0  0  0  0  0
    2.2295    3.2577    0.0000 S   0  0  0  0  0  0  0  0  0  0  0  0
    2.9440    2.8452    0.0000 C   0  0  0  0  0  0  0  0  0  0  0  0
    3.6584    3.2577    0.0000 C   0  0  0  0  0  0  0  0  0  0  0  0
    4.3729    2.8452    0.0000 C   0  0  0  0  0  0  0  0  0  0  0  0
    5.0874    3.2577    0.0000 O   0  0  0  0  0  0  0  0  0  0  0  0
    1.4288    2.0247    0.0000 N   0  0  0  0  0  0  0  0  0  0  0  0
    0.6218    1.8532    0.0000 C   0  0  0  0  0  0  0  0  0  0  0  0
    0.2093    1.1387    0.0000 C   0  0  0  0  0  0  0  0  0  0  0  0
  1  2  1  0  0  0  0
  2  3  1  0  0  0  0
  3  4  4  0  0  0  0
  4  5  4  0  0  0  0
  5  6  4  0  0  0  0
  6  7  4  0  0  0  0
  7  8  4  0  0  0  0
  8  9  1  0  0  0  0
  9 10  1  0  0  0  0
 10 11  1  0  0  0  0
 11 12  1  0  0  0  0
 12 13  1  0  0  0  0
  8 14  4  0  0  0  0
 14 15  4  0  0  0  0
  6 15  4  0  0  0  0
 15 16  4  0  0  0  0
  3 16  4  0  0  0  0
M  STY  1   1 DAT
M  SAL   1  1   7
M  SDT   1 MRV_IMPLICIT_H                                        
M  SDD   1     0.0000    0.0000    DR    ALL  0       0  
M  SED   1 IMPL_H1
M  END
>  <CdId>
309

>  <Mol Weight>
238.31

>  <Formula>
C11H14N2O2S

>  <Molecule ChEMBL ID>
CHEMBL2018913

>  <Molecule Max Phase>
None

>  <Molecular Weight>
238.31

>  <#RO5 Violations>
0

>  <AlogP>
2.05

>  <Compound Key>
11

>  <Standard Type>
IC50

>  <Standard Relation>
'='

>  <Standard Value>
5650.0

>  <Standard Units>
nM

$$$$

  Mrv2114 03112311372D          

 19 21  0  0  0  0            999 V2000
    7.6391    3.5854    0.0000 C   0  0  0  0  0  0  0  0  0  0  0  0
    6.9246    3.1729    0.0000 C   0  0  0  0  0  0  0  0  0  0  0  0
    6.9246    2.3479    0.0000 C   0  0  0  0  0  0  0  0  0  0  0  0
    6.2102    1.9354    0.0000 C   0  0  0  0  0  0  0  0  0  0  0  0
    5.4957    2.3479    0.0000 C   0  0  0  0  0  0  0  0  0  0  0  0
    4.7812    1.9354    0.0000 C   0  0  0  0  0  0  0  0  0  0  0  0
    4.0668    2.3479    0.0000 S   0  0  0  0  0  0  0  0  0  0  0  0
    3.3523    1.9354    0.0000 C   0  0  0  0  0  0  0  0  0  0  0  0
    3.3523    1.1104    0.0000 N   0  0  0  0  0  0  0  0  0  0  0  0
    2.6378    0.6979    0.0000 C   0  0  0  0  0  0  0  0  0  0  0  0
    2.6378   -0.1271    0.0000 O   0  0  0  0  0  0  0  0  0  0  0  0
    1.9233    1.1104    0.0000 C   0  0  0  0  0  0  0  0  0  0  0  0
    1.9233    1.9354    0.0000 C   0  0  0  0  0  0  0  0  0  0  0  0
    2.6378    2.3479    0.0000 N   0  0  0  0  0  0  0  0  0  0  0  0
    1.1387    2.1904    0.0000 C   0  0  0  0  0  0  0  0  0  0  0  0
    0.6538    1.5229    0.0000 C   0  0  0  0  0  0  0  0  0  0  0  0
    1.1387    0.8555    0.0000 C   0  0  0  0  0  0  0  0  0  0  0  0
    5.4957    3.1729    0.0000 C   0  0  0  0  0  0  0  0  0  0  0  0
    6.2102    3.5854    0.0000 C   0  0  0  0  0  0  0  0  0  0  0  0
  1  2  1  0  0  0  0
  2  3  4  0  0  0  0
  3  4  4  0  0  0  0
  4  5  4  0  0  0  0
  5  6  1  0  0  0  0
  6  7  1  0  0  0  0
  7  8  1  0  0  0  0
  8  9  4  0  0  0  0
  9 10  4  0  0  0  0
 10 11  1  0  0  0  0
 10 12  4  0  0  0  0
 12 13  4  0  0  0  0
 13 14  4  0  0  0  0
  8 14  4  0  0  0  0
 13 15  1  0  0  0  0
 15 16  1  0  0  0  0
 16 17  1  0  0  0  0
 12 17  1  0  0  0  0
  5 18  4  0  0  0  0
 18 19  4  0  0  0  0
  2 19  4  0  0  0  0
M  END
>  <CdId>
310

>  <Mol Weight>
272.37

>  <Formula>
C15H16N2OS

>  <Molecule ChEMBL ID>
CHEMBL1371684

>  <Molecule Max Phase>
None

>  <Molecular Weight>
272.37

>  <#RO5 Violations>
0

>  <AlogP>
3.27

>  <Compound Key>
2

>  <Standard Type>
IC50

>  <Standard Relation>
'>'

>  <Standard Value>
20000.0

>  <Standard Units>
nM

$$$$

  Mrv2114 03112311372D          

 30 33  0  0  1  0            999 V2000
   -0.7145   -1.2375    0.0000 C   0  0  0  0  0  0  0  0  0  0  0  0
   -0.7145   -0.4125    0.0000 C   0  0  2  0  0  0  0  0  0  0  0  0
    0.0000    0.0000    0.0000 O   0  0  0  0  0  0  0  0  0  0  0  0
    0.7145   -0.4125    0.0000 C   0  0  0  0  0  0  0  0  0  0  0  0
    1.4289    0.0000    0.0000 C   0  0  0  0  0  0  0  0  0  0  0  0
    2.1434   -0.4125    0.0000 C   0  0  0  0  0  0  0  0  0  0  0  0
    2.8579    0.0000    0.0000 C   0  0  0  0  0  0  0  0  0  0  0  0
    3.5724   -0.4125    0.0000 C   0  0  0  0  0  0  0  0  0  0  0  0
    4.2868   -0.0000    0.0000 F   0  0  0  0  0  0  0  0  0  0  0  0
    3.5724   -1.2375    0.0000 C   0  0  0  0  0  0  0  0  0  0  0  0
    2.8579   -1.6500    0.0000 C   0  0  0  0  0  0  0  0  0  0  0  0
    2.8579   -2.4750    0.0000 F   0  0  0  0  0  0  0  0  0  0  0  0
    2.1434   -1.2375    0.0000 C   0  0  0  0  0  0  0  0  0  0  0  0
    1.4289   -1.6500    0.0000 N   0  0  0  0  0  0  0  0  0  0  0  0
    0.7145   -1.2375    0.0000 C   0  0  0  0  0  0  0  0  0  0  0  0
    0.0000   -1.6500    0.0000 N   0  0  0  0  0  0  0  0  0  0  0  0
   -1.4289    0.0000    0.0000 C   0  0  0  0  0  0  0  0  0  0  0  0
   -2.1434   -0.4125    0.0000 C   0  0  0  0  0  0  0  0  0  0  0  0
   -2.8579    0.0000    0.0000 C   0  0  0  0  0  0  0  0  0  0  0  0
   -3.5724   -0.4125    0.0000 C   0  0  0  0  0  0  0  0  0  0  0  0
   -3.5724   -1.2375    0.0000 O   0  0  0  0  0  0  0  0  0  0  0  0
   -4.2868    0.0000    0.0000 O   0  0  0  0  0  0  0  0  0  0  0  0
   -2.8579    0.8250    0.0000 C   0  0  0  0  0  0  0  0  0  0  0  0
   -2.1434    1.2375    0.0000 C   0  0  0  0  0  0  0  0  0  0  0  0
   -1.4289    0.8250    0.0000 C   0  0  0  0  0  0  0  0  0  0  0  0
   -0.7145    1.2375    0.0000 N   0  0  0  0  0  0  0  0  0  0  0  0
   -0.6282    2.0580    0.0000 C   0  0  0  0  0  0  0  0  0  0  0  0
    0.1787    2.2295    0.0000 C   0  0  0  0  0  0  0  0  0  0  0  0
    0.5912    1.5150    0.0000 C   0  0  0  0  0  0  0  0  0  0  0  0
    0.0392    0.9019    0.0000 N   0  0  0  0  0  0  0  0  0  0  0  0
  2  1  1  1  0  0  0
  2  3  1  0  0  0  0
  3  4  1  0  0  0  0
  4  5  4  0  0  0  0
  5  6  4  0  0  0  0
  6  7  4  0  0  0  0
  7  8  4  0  0  0  0
  8  9  1  0  0  0  0
  8 10  4  0  0  0  0
 10 11  4  0  0  0  0
 11 12  1  0  0  0  0
 11 13  4  0  0  0  0
  6 13  4  0  0  0  0
 13 14  4  0  0  0  0
 14 15  4  0  0  0  0
  4 15  4  0  0  0  0
 15 16  1  0  0  0  0
  2 17  1  0  0  0  0
 17 18  4  0  0  0  0
 18 19  4  0  0  0  0
 19 20  1  0  0  0  0
 20 21  2  0  0  0  0
 20 22  1  0  0  0  0
 19 23  4  0  0  0  0
 23 24  4  0  0  0  0
 24 25  4  0  0  0  0
 17 25  4  0  0  0  0
 25 26  1  0  0  0  0
 26 27  4  0  0  0  0
 27 28  4  0  0  0  0
 28 29  4  0  0  0  0
 29 30  4  0  0  0  0
 26 30  4  0  0  0  0
M  END
>  <CdId>
311

>  <Mol Weight>
410.381

>  <Formula>
C21H16F2N4O3

>  <Molecule ChEMBL ID>
CHEMBL4785484

>  <Molecule Max Phase>
None

>  <Molecular Weight>
410.38

>  <#RO5 Violations>
0

>  <AlogP>
4.12

>  <Compound Key>
22

>  <Standard Type>
IC50

>  <Standard Relation>
'='

>  <Standard Value>
17300.0

>  <Standard Units>
nM

$$$$

  Mrv2114 03112311372D          

 29 32  0  0  0  0            999 V2000
    2.0911   -1.5016    0.0000 C   0  0  0  0  0  0  0  0  0  0  0  0
    1.7821   -0.7366    0.0000 C   0  0  0  0  0  0  0  0  0  0  0  0
    0.9816   -0.5371    0.0000 C   0  0  0  0  0  0  0  0  0  0  0  0
    0.3496   -1.0674    0.0000 C   0  0  0  0  0  0  0  0  0  0  0  0
   -0.2824   -0.5371    0.0000 C   0  0  0  0  0  0  0  0  0  0  0  0
   -1.0576   -0.8192    0.0000 C   0  0  0  0  0  0  0  0  0  0  0  0
   -1.6896   -0.2889    0.0000 C   0  0  0  0  0  0  0  0  0  0  0  0
   -1.5464    0.5235    0.0000 C   0  0  0  0  0  0  0  0  0  0  0  0
   -2.1784    1.0538    0.0000 C   0  0  0  0  0  0  0  0  0  0  0  0
   -2.8103    1.5841    0.0000 F   0  0  0  0  0  0  0  0  0  0  0  0
   -2.7087    0.4219    0.0000 F   0  0  0  0  0  0  0  0  0  0  0  0
   -1.6481    1.6858    0.0000 F   0  0  0  0  0  0  0  0  0  0  0  0
   -0.7711    0.8057    0.0000 N   0  0  0  0  0  0  0  0  0  0  0  0
   -0.1391    0.2754    0.0000 C   0  0  0  0  0  0  0  0  0  0  0  0
    0.7621   -1.7818    0.0000 C   0  0  0  0  0  0  0  0  0  0  0  0
   -0.0629   -1.7818    0.0000 C   0  0  0  0  0  0  0  0  0  0  0  0
    0.9240    0.2859    0.0000 C   0  0  0  0  0  0  0  0  0  0  0  0
    1.6890    0.5950    0.0000 N   0  0  0  0  0  0  0  0  0  0  0  0
    2.2193   -0.0370    0.0000 C   0  0  0  0  0  0  0  0  0  0  0  0
    3.0422    0.0205    0.0000 C   0  0  0  0  0  0  0  0  0  0  0  0
    3.4039    0.7621    0.0000 O   0  0  0  0  0  0  0  0  0  0  0  0
    3.5036   -0.6634    0.0000 N   0  0  0  0  0  0  0  0  0  0  0  0
    4.3266   -0.6059    0.0000 C   0  0  0  0  0  0  0  0  0  0  0  0
    4.6882    0.1356    0.0000 C   0  0  0  0  0  0  0  0  0  0  0  0
    4.7879   -1.2898    0.0000 C   0  0  0  0  0  0  0  0  0  0  0  0
    5.6124   -1.3186    0.0000 C   0  0  0  0  0  0  0  0  0  0  0  0
    5.8398   -2.1116    0.0000 N   0  0  0  0  0  0  0  0  0  0  0  0
    5.1558   -2.5730    0.0000 C   0  0  0  0  0  0  0  0  0  0  0  0
    4.5057   -2.0651    0.0000 N   0  0  0  0  0  0  0  0  0  0  0  0
  1  2  1  0  0  0  0
  2  3  4  0  0  0  0
  3  4  1  0  0  0  0
  4  5  1  0  0  0  0
  5  6  4  0  0  0  0
  6  7  4  0  0  0  0
  7  8  4  0  0  0  0
  8  9  1  0  0  0  0
  9 10  1  0  0  0  0
  9 11  1  0  0  0  0
  9 12  1  0  0  0  0
  8 13  4  0  0  0  0
 13 14  4  0  0  0  0
  5 14  4  0  0  0  0
  4 15  1  0  0  0  0
 15 16  1  0  0  0  0
  4 16  1  0  0  0  0
  3 17  4  0  0  0  0
 17 18  4  0  0  0  0
 18 19  4  0  0  0  0
  2 19  4  0  0  0  0
 19 20  1  0  0  0  0
 20 21  2  0  0  0  0
 20 22  1  0  0  0  0
 22 23  1  0  0  0  0
 23 24  1  0  0  0  0
 23 25  1  0  0  0  0
 25 26  4  0  0  0  0
 26 27  4  0  0  0  0
 27 28  4  0  0  0  0
 28 29  4  0  0  0  0
 25 29  4  0  0  0  0
M  STY  2   1 DAT   2 DAT
M  SAL   1  1  18
M  SDT   1 MRV_IMPLICIT_H                                        
M  SDD   1     0.0000    0.0000    DR    ALL  0       0  
M  SED   1 IMPL_H1
M  SAL   2  1  27
M  SDT   2 MRV_IMPLICIT_H                                        
M  SDD   2     0.0000    0.0000    DR    ALL  0       0  
M  SED   2 IMPL_H1
M  END
>  <CdId>
312

>  <Mol Weight>
403.409

>  <Formula>
C20H20F3N5O

>  <Molecule ChEMBL ID>
CHEMBL4851471

>  <Molecule Max Phase>
None

>  <Molecular Weight>
403.41

>  <#RO5 Violations>
0

>  <AlogP>
4.03

>  <Compound Key>
88; DSM797

>  <Standard Type>
IC50

$$$$

  Mrv2114 03112311372D          

 31 34  0  0  0  0            999 V2000
   -0.1715    1.6320    0.0000 C   0  0  0  0  0  0  0  0  0  0  0  0
    0.0000    0.8250    0.0000 C   0  0  0  0  0  0  0  0  0  0  0  0
   -0.8205    0.7388    0.0000 C   0  0  0  0  0  0  0  0  0  0  0  0
    0.7846    1.0799    0.0000 C   0  0  0  0  0  0  0  0  0  0  0  0
    1.2695    0.4125    0.0000 C   0  0  1  0  0  0  0  0  0  0  0  0
    1.6820    1.1270    0.0000 C   0  0  0  0  0  0  0  0  0  0  0  0
    2.5070    1.1270    0.0000 C   0  0  0  0  0  0  0  0  0  0  0  0
    2.9195    0.4125    0.0000 C   0  0  2  0  0  0  0  0  0  0  0  0
    3.7445    0.4125    0.0000 N   0  0  0  0  0  0  0  0  0  0  0  0
    4.1570   -0.3020    0.0000 C   0  0  0  0  0  0  0  0  0  0  0  0
    4.9820   -0.3020    0.0000 C   0  0  0  0  0  0  0  0  0  0  0  0
    5.3945   -1.0164    0.0000 C   0  0  0  0  0  0  0  0  0  0  0  0
    6.2195   -1.0164    0.0000 N   0  0  0  0  0  0  0  0  0  0  0  0
    6.6320   -1.7309    0.0000 C   0  0  0  0  0  0  0  0  0  0  0  0
    7.4570   -1.7309    0.0000 C   0  0  0  0  0  0  0  0  0  0  0  0
    7.8695   -2.4454    0.0000 C   0  0  0  0  0  0  0  0  0  0  0  0
    7.4570   -3.1599    0.0000 C   0  0  0  0  0  0  0  0  0  0  0  0
    7.8695   -3.8743    0.0000 S   0  0  0  0  0  0  0  0  0  0  0  0
    8.2820   -4.5888    0.0000 C   0  0  0  0  0  0  0  0  0  0  0  0
    7.1551   -4.2868    0.0000 O   0  0  0  0  0  0  0  0  0  0  0  0
    8.5840   -3.4618    0.0000 O   0  0  0  0  0  0  0  0  0  0  0  0
    6.6320   -3.1599    0.0000 C   0  0  0  0  0  0  0  0  0  0  0  0
    6.2195   -2.4454    0.0000 C   0  0  0  0  0  0  0  0  0  0  0  0
    5.3945   -2.4454    0.0000 F   0  0  0  0  0  0  0  0  0  0  0  0
    4.9820   -1.7309    0.0000 N   0  0  0  0  0  0  0  0  0  0  0  0
    4.1570   -1.7309    0.0000 C   0  0  0  0  0  0  0  0  0  0  0  0
    3.7445   -1.0164    0.0000 N   0  0  0  0  0  0  0  0  0  0  0  0
    2.5070   -0.3020    0.0000 C   0  0  0  0  0  0  0  0  0  0  0  0
    1.6820   -0.3020    0.0000 C   0  0  0  0  0  0  0  0  0  0  0  0
    0.7846   -0.2549    0.0000 C   0  0  0  0  0  0  0  0  0  0  0  0
   -0.0000    0.0000    0.0000 O   0  0  0  0  0  0  0  0  0  0  0  0
  1  2  1  0  0  0  0
  2  3  1  0  0  0  0
  2  4  1  0  0  0  0
  5  4  1  1  0  0  0
  5  6  1  0  0  0  0
  6  7  1  0  0  0  0
  8  7  1  0  0  0  0
  8  9  1  6  0  0  0
  9 10  1  0  0  0  0
 10 11  4  0  0  0  0
 11 12  4  0  0  0  0
 12 13  1  0  0  0  0
 13 14  1  0  0  0  0
 14 15  4  0  0  0  0
 15 16  4  0  0  0  0
 16 17  4  0  0  0  0
 17 18  1  0  0  0  0
 18 19  1  0  0  0  0
 18 20  2  0  0  0  0
 18 21  2  0  0  0  0
 17 22  4  0  0  0  0
 22 23  4  0  0  0  0
 14 23  4  0  0  0  0
 23 24  1  0  0  0  0
 12 25  4  0  0  0  0
 25 26  4  0  0  0  0
 26 27  4  0  0  0  0
 10 27  4  0  0  0  0
  8 28  1  0  0  0  0
 28 29  1  0  0  0  0
  5 29  1  0  0  0  0
  5 30  1  0  0  0  0
 30 31  1  0  0  0  0
  2 31  1  0  0  0  0
M  END
>  <CdId>
313

>  <Mol Weight>
448.56

>  <Formula>
C22H29FN4O3S

>  <Molecule ChEMBL ID>
CHEMBL4591100

>  <Molecule Max Phase>
None

>  <Molecular Weight>
448.56

>  <#RO5 Violations>
0

>  <AlogP>
4.3

>  <Compound Key>
21

>  <Standard Type>
IC50

>  <Standard Relation>
'>'

>  <Standard Value>
50000.0

>  <Standard Units>
nM

$$$$

  Mrv2114 03112311372D          

 17 19  0  0  0  0            999 V2000
    1.4289    0.8250    0.0000 C   0  0  0  0  0  0  0  0  0  0  0  0
    1.4289   -0.0000    0.0000 C   0  0  0  0  0  0  0  0  0  0  0  0
    0.7145   -0.4125    0.0000 C   0  0  0  0  0  0  0  0  0  0  0  0
    0.7145   -1.2375    0.0000 C   0  0  0  0  0  0  0  0  0  0  0  0
    1.3819   -1.7224    0.0000 N   0  0  0  0  0  0  0  0  0  0  0  0
    1.1270   -2.5070    0.0000 O   0  0  0  0  0  0  0  0  0  0  0  0
    0.3020   -2.5070    0.0000 C   0  0  0  0  0  0  0  0  0  0  0  0
   -0.1830   -3.1745    0.0000 C   0  0  0  0  0  0  0  0  0  0  0  0
    0.1526   -3.9282    0.0000 C   0  0  0  0  0  0  0  0  0  0  0  0
   -0.3323   -4.5956    0.0000 C   0  0  0  0  0  0  0  0  0  0  0  0
   -1.1528   -4.5094    0.0000 C   0  0  0  0  0  0  0  0  0  0  0  0
   -1.4884   -3.7557    0.0000 C   0  0  0  0  0  0  0  0  0  0  0  0
   -1.0034   -3.0882    0.0000 C   0  0  0  0  0  0  0  0  0  0  0  0
    0.0470   -1.7224    0.0000 N   0  0  0  0  0  0  0  0  0  0  0  0
    0.0000   -0.0000    0.0000 C   0  0  0  0  0  0  0  0  0  0  0  0
    0.0000    0.8250    0.0000 C   0  0  0  0  0  0  0  0  0  0  0  0
    0.7145    1.2375    0.0000 N   0  0  0  0  0  0  0  0  0  0  0  0
  1  2  4  0  0  0  0
  2  3  4  0  0  0  0
  3  4  1  0  0  0  0
  4  5  4  0  0  0  0
  5  6  4  0  0  0  0
  6  7  4  0  0  0  0
  7  8  1  0  0  0  0
  8  9  1  0  0  0  0
  9 10  1  0  0  0  0
 10 11  1  0  0  0  0
 11 12  1  0  0  0  0
 12 13  1  0  0  0  0
  8 13  1  0  0  0  0
  7 14  4  0  0  0  0
  4 14  4  0  0  0  0
  3 15  4  0  0  0  0
 15 16  4  0  0  0  0
 16 17  4  0  0  0  0
  1 17  4  0  0  0  0
M  END
>  <CdId>
314

>  <Mol Weight>
229.283

>  <Formula>
C13H15N3O

>  <Molecule ChEMBL ID>
CHEMBL2069803

>  <Molecule Max Phase>
None

>  <Molecular Weight>
229.28

>  <#RO5 Violations>
0

>  <AlogP>
3.18

>  <Compound Key>
23

>  <Standard Type>
IC50

>  <Standard Relation>
'>'

>  <Standard Value>
20000.0

>  <Standard Units>
nM

$$$$

  Mrv2114 03112311372D          

 38 44  0  0  0  0            999 V2000
    6.4970   -1.8338    0.0000 O   0  0  0  0  0  0  0  0  0  0  0  0
    5.7825   -1.4213    0.0000 C   0  0  0  0  0  0  0  0  0  0  0  0
    5.7825   -0.5963    0.0000 O   0  0  0  0  0  0  0  0  0  0  0  0
    5.0680   -1.8338    0.0000 C   0  0  0  0  0  0  0  0  0  0  0  0
    5.0680   -2.6588    0.0000 C   0  0  0  0  0  0  0  0  0  0  0  0
    4.3536   -3.0713    0.0000 C   0  0  0  0  0  0  0  0  0  0  0  0
    4.3536   -3.8963    0.0000 F   0  0  0  0  0  0  0  0  0  0  0  0
    3.6391   -2.6588    0.0000 C   0  0  0  0  0  0  0  0  0  0  0  0
    2.8545   -2.9138    0.0000 N   0  0  0  0  0  0  0  0  0  0  0  0
    2.3695   -2.2463    0.0000 C   0  0  0  0  0  0  0  0  0  0  0  0
    1.5445   -2.2463    0.0000 N   0  0  0  0  0  0  0  0  0  0  0  0
    1.1320   -2.9608    0.0000 C   0  0  0  0  0  0  0  0  0  0  0  0
    0.3070   -2.9608    0.0000 C   0  0  0  0  0  0  0  0  0  0  0  0
   -0.1055   -2.2463    0.0000 C   0  0  0  0  0  0  0  0  0  0  0  0
   -0.6888   -2.8297    0.0000 C   0  0  0  0  0  0  0  0  0  0  0  0
   -1.2722   -2.2463    0.0000 C   0  0  0  0  0  0  0  0  0  0  0  0
   -2.0972   -2.2463    0.0000 C   0  0  0  0  0  0  0  0  0  0  0  0
   -2.5821   -2.9138    0.0000 C   0  0  0  0  0  0  0  0  0  0  0  0
   -2.3272   -3.6984    0.0000 C   0  0  0  0  0  0  0  0  0  0  0  0
   -1.5202   -3.8699    0.0000 C   0  0  0  0  0  0  0  0  0  0  0  0
   -0.9682   -3.2568    0.0000 Cl  0  0  0  0  0  0  0  0  0  0  0  0
   -1.2653   -4.6545    0.0000 C   0  0  0  0  0  0  0  0  0  0  0  0
   -1.8173   -5.2676    0.0000 N   0  0  0  0  0  0  0  0  0  0  0  0
   -2.6243   -5.0961    0.0000 C   0  0  0  0  0  0  0  0  0  0  0  0
   -2.8792   -4.3115    0.0000 C   0  0  0  0  0  0  0  0  0  0  0  0
   -3.6862   -4.1400    0.0000 Cl  0  0  0  0  0  0  0  0  0  0  0  0
   -3.3667   -2.6588    0.0000 N   0  0  0  0  0  0  0  0  0  0  0  0
   -3.3667   -1.8338    0.0000 O   0  0  0  0  0  0  0  0  0  0  0  0
   -2.5821   -1.5789    0.0000 C   0  0  0  0  0  0  0  0  0  0  0  0
   -2.3272   -0.7943    0.0000 C   0  0  0  0  0  0  0  0  0  0  0  0
   -2.4987    0.0127    0.0000 C   0  0  0  0  0  0  0  0  0  0  0  0
   -1.7141   -0.2422    0.0000 C   0  0  0  0  0  0  0  0  0  0  0  0
   -0.6888   -1.6630    0.0000 C   0  0  0  0  0  0  0  0  0  0  0  0
    0.3070   -1.5319    0.0000 C   0  0  0  0  0  0  0  0  0  0  0  0
    1.1320   -1.5319    0.0000 C   0  0  0  0  0  0  0  0  0  0  0  0
    2.8545   -1.5789    0.0000 S   0  0  0  0  0  0  0  0  0  0  0  0
    3.6391   -1.8338    0.0000 C   0  0  0  0  0  0  0  0  0  0  0  0
    4.3536   -1.4213    0.0000 C   0  0  0  0  0  0  0  0  0  0  0  0
  1  2  2  0  0  0  0
  2  3  1  0  0  0  0
  2  4  1  0  0  0  0
  4  5  4  0  0  0  0
  5  6  4  0  0  0  0
  6  7  1  0  0  0  0
  6  8  4  0  0  0  0
  8  9  4  0  0  0  0
  9 10  4  0  0  0  0
 10 11  1  0  0  0  0
 11 12  1  0  0  0  0
 12 13  1  0  0  0  0
 13 14  1  0  0  0  0
 14 15  1  0  0  0  0
 15 16  2  0  0  0  0
 16 17  1  0  0  0  0
 17 18  4  0  0  0  0
 18 19  1  0  0  0  0
 19 20  4  0  0  0  0
 20 21  1  0  0  0  0
 20 22  4  0  0  0  0
 22 23  4  0  0  0  0
 23 24  4  0  0  0  0
 24 25  4  0  0  0  0
 19 25  4  0  0  0  0
 25 26  1  0  0  0  0
 18 27  4  0  0  0  0
 27 28  4  0  0  0  0
 28 29  4  0  0  0  0
 17 29  4  0  0  0  0
 29 30  1  0  0  0  0
 30 31  1  0  0  0  0
 31 32  1  0  0  0  0
 30 32  1  0  0  0  0
 16 33  1  0  0  0  0
 14 33  1  0  0  0  0
 14 34  1  0  0  0  0
 34 35  1  0  0  0  0
 11 35  1  0  0  0  0
 10 36  4  0  0  0  0
 36 37  4  0  0  0  0
  8 37  4  0  0  0  0
 37 38  4  0  0  0  0
  4 38  4  0  0  0  0
M  END
>  <CdId>
315

>  <Mol Weight>
571.45

>  <Formula>
C27H21Cl2FN4O3S

>  <Molecule ChEMBL ID>
CHEMBL4870156

>  <Molecule Max Phase>
None

>  <Molecular Weight>
571.46

>  <#RO5 Violations>
2

>  <AlogP>
7.44

>  <Compound Key>
12

>  <Standard Type>
IC50

>  <Standard Relation>
'='

>  <Standard Value>
7700.0

>  <Standard Units>
nM

$$$$

  Mrv2114 03112311372D          

 38 44  0  0  0  0            999 V2000
    0.0000   -2.4750    0.0000 O   0  0  0  0  0  0  0  0  0  0  0  0
    0.0000   -1.6500    0.0000 C   0  0  0  0  0  0  0  0  0  0  0  0
   -0.7145   -1.2375    0.0000 O   0  0  0  0  0  0  0  0  0  0  0  0
    0.7145   -1.2375    0.0000 C   0  0  0  0  0  0  0  0  0  0  0  0
    0.7145   -0.4125    0.0000 C   0  0  0  0  0  0  0  0  0  0  0  0
    1.4289    0.0000    0.0000 C   0  0  0  0  0  0  0  0  0  0  0  0
    2.1434   -0.4125    0.0000 C   0  0  0  0  0  0  0  0  0  0  0  0
    2.8579    0.0000    0.0000 C   0  0  0  0  0  0  0  0  0  0  0  0
    3.5724   -0.4125    0.0000 C   0  0  0  0  0  0  0  0  0  0  0  0
    4.2868   -0.0000    0.0000 N   0  0  0  0  0  0  0  0  0  0  0  0
    4.2868    0.8250    0.0000 C   0  0  0  0  0  0  0  0  0  0  0  0
    5.0013    1.2375    0.0000 C   0  0  0  0  0  0  0  0  0  0  0  0
    5.7158    0.8250    0.0000 C   0  0  0  0  0  0  0  0  0  0  0  0
    5.9293    1.6219    0.0000 C   0  0  0  0  0  0  0  0  0  0  0  0
    6.7262    1.4084    0.0000 C   0  0  0  0  0  0  0  0  0  0  0  0
    7.4407    1.8209    0.0000 C   0  0  0  0  0  0  0  0  0  0  0  0
    7.5269    2.6413    0.0000 C   0  0  0  0  0  0  0  0  0  0  0  0
    6.9138    3.1934    0.0000 C   0  0  0  0  0  0  0  0  0  0  0  0
    6.1292    2.9384    0.0000 C   0  0  0  0  0  0  0  0  0  0  0  0
    5.9576    2.1315    0.0000 Cl  0  0  0  0  0  0  0  0  0  0  0  0
    5.5161    3.4905    0.0000 C   0  0  0  0  0  0  0  0  0  0  0  0
    5.6876    4.2974    0.0000 C   0  0  0  0  0  0  0  0  0  0  0  0
    6.4722    4.5524    0.0000 C   0  0  0  0  0  0  0  0  0  0  0  0
    7.0853    4.0003    0.0000 C   0  0  0  0  0  0  0  0  0  0  0  0
    7.8699    4.2553    0.0000 Cl  0  0  0  0  0  0  0  0  0  0  0  0
    8.3339    2.8129    0.0000 N   0  0  0  0  0  0  0  0  0  0  0  0
    8.7464    2.0984    0.0000 O   0  0  0  0  0  0  0  0  0  0  0  0
    8.1943    1.4853    0.0000 C   0  0  0  0  0  0  0  0  0  0  0  0
    8.3659    0.6783    0.0000 C   0  0  0  0  0  0  0  0  0  0  0  0
    8.9179    0.0652    0.0000 C   0  0  0  0  0  0  0  0  0  0  0  0
    8.1109   -0.1063    0.0000 C   0  0  0  0  0  0  0  0  0  0  0  0
    6.5127    0.6115    0.0000 C   0  0  0  0  0  0  0  0  0  0  0  0
    5.7158   -0.0000    0.0000 C   0  0  0  0  0  0  0  0  0  0  0  0
    5.0013   -0.4125    0.0000 C   0  0  0  0  0  0  0  0  0  0  0  0
    3.5724   -1.2375    0.0000 C   0  0  0  0  0  0  0  0  0  0  0  0
    2.8579   -1.6500    0.0000 C   0  0  0  0  0  0  0  0  0  0  0  0
    2.1434   -1.2375    0.0000 C   0  0  0  0  0  0  0  0  0  0  0  0
    1.4289   -1.6500    0.0000 N   0  0  0  0  0  0  0  0  0  0  0  0
  1  2  2  0  0  0  0
  2  3  1  0  0  0  0
  2  4  1  0  0  0  0
  4  5  4  0  0  0  0
  5  6  4  0  0  0  0
  6  7  4  0  0  0  0
  7  8  4  0  0  0  0
  8  9  4  0  0  0  0
  9 10  1  0  0  0  0
 10 11  1  0  0  0  0
 11 12  1  0  0  0  0
 12 13  1  0  0  0  0
 13 14  1  0  0  0  0
 14 15  2  0  0  0  0
 15 16  1  0  0  0  0
 16 17  4  0  0  0  0
 17 18  1  0  0  0  0
 18 19  4  0  0  0  0
 19 20  1  0  0  0  0
 19 21  4  0  0  0  0
 21 22  4  0  0  0  0
 22 23  4  0  0  0  0
 23 24  4  0  0  0  0
 18 24  4  0  0  0  0
 24 25  1  0  0  0  0
 17 26  4  0  0  0  0
 26 27  4  0  0  0  0
 27 28  4  0  0  0  0
 16 28  4  0  0  0  0
 28 29  1  0  0  0  0
 29 30  1  0  0  0  0
 30 31  1  0  0  0  0
 29 31  1  0  0  0  0
 15 32  1  0  0  0  0
 13 32  1  0  0  0  0
 13 33  1  0  0  0  0
 33 34  1  0  0  0  0
 10 34  1  0  0  0  0
  9 35  4  0  0  0  0
 35 36  4  0  0  0  0
 36 37  4  0  0  0  0
  7 37  4  0  0  0  0
 37 38  4  0  0  0  0
  4 38  4  0  0  0  0
M  END
>  <CdId>
316

>  <Mol Weight>
546.45

>  <Formula>
C30H25Cl2N3O3

>  <Molecule ChEMBL ID>
CHEMBL4872481

>  <Molecule Max Phase>
None

>  <Molecular Weight>
546.45

>  <#RO5 Violations>
2

>  <AlogP>
7.85

>  <Compound Key>
16

>  <Standard Type>
IC50

>  <Standard Relation>
'='

>  <Standard Value>
5600.0

>  <Standard Units>
nM

$$$$

  Mrv2114 03112311372D          

 43 48  0  0  1  0            999 V2000
   -3.5724   -7.0125    0.0000 C   0  0  0  0  0  0  0  0  0  0  0  0
   -3.5724   -6.1875    0.0000 N   0  0  0  0  0  0  0  0  0  0  0  0
   -2.8579   -5.7750    0.0000 C   0  0  1  0  0  0  0  0  0  0  0  0
   -2.1434   -6.1875    0.0000 C   0  0  0  0  0  0  0  0  0  0  0  0
   -2.8579   -4.9500    0.0000 C   0  0  0  0  0  0  0  0  0  0  0  0
   -3.5724   -4.5375    0.0000 O   0  0  0  0  0  0  0  0  0  0  0  0
   -2.1434   -4.5375    0.0000 N   0  0  0  0  0  0  0  0  0  0  0  0
   -2.1434   -3.7125    0.0000 C   0  0  0  0  0  0  0  0  0  0  0  0
   -2.8579   -3.3000    0.0000 C   0  0  0  0  0  0  0  0  0  0  0  0
   -2.8579   -2.4750    0.0000 C   0  0  0  0  0  0  0  0  0  0  0  0
   -2.1434   -2.0625    0.0000 C   0  0  0  0  0  0  0  0  0  0  0  0
   -2.1434   -1.2375    0.0000 C   0  0  0  0  0  0  0  0  0  0  0  0
   -2.8109   -0.7526    0.0000 C   0  0  0  0  0  0  0  0  0  0  0  0
   -3.5955   -1.0075    0.0000 C   0  0  0  0  0  0  0  0  0  0  0  0
   -3.7670   -1.8145    0.0000 C   0  0  0  0  0  0  0  0  0  0  0  0
   -4.5516   -2.0694    0.0000 C   0  0  0  0  0  0  0  0  0  0  0  0
   -5.1647   -1.5174    0.0000 N   0  0  0  0  0  0  0  0  0  0  0  0
   -4.9932   -0.7104    0.0000 C   0  0  0  0  0  0  0  0  0  0  0  0
   -5.6063   -0.1584    0.0000 C   0  0  0  0  0  0  0  0  0  0  0  0
   -4.2086   -0.4555    0.0000 C   0  0  0  0  0  0  0  0  0  0  0  0
   -2.5559    0.0320    0.0000 N   0  0  0  0  0  0  0  0  0  0  0  0
   -1.7309    0.0320    0.0000 C   0  0  0  0  0  0  0  0  0  0  0  0
   -1.1789    0.6451    0.0000 C   0  0  0  0  0  0  0  0  0  0  0  0
   -0.3719    0.4736    0.0000 C   0  0  0  0  0  0  0  0  0  0  0  0
    0.1801    1.0867    0.0000 C   0  0  0  0  0  0  0  0  0  0  0  0
   -0.1170   -0.3110    0.0000 C   0  0  0  0  0  0  0  0  0  0  0  0
   -0.6690   -0.9241    0.0000 C   0  0  0  0  0  0  0  0  0  0  0  0
   -1.4760   -0.7526    0.0000 N   0  0  0  0  0  0  0  0  0  0  0  0
   -1.4289   -2.4750    0.0000 C   0  0  0  0  0  0  0  0  0  0  0  0
   -0.7145   -2.0625    0.0000 C   0  0  0  0  0  0  0  0  0  0  0  0
    0.0000   -1.6500    0.0000 C   0  0  0  0  0  0  0  0  0  0  0  0
    0.7145   -1.2375    0.0000 C   0  0  0  0  0  0  0  0  0  0  0  0
    0.7145   -0.4125    0.0000 C   0  0  0  0  0  0  0  0  0  0  0  0
    1.4289    0.0000    0.0000 C   0  0  0  0  0  0  0  0  0  0  0  0
    2.1434   -0.4125    0.0000 C   0  0  0  0  0  0  0  0  0  0  0  0
    2.8579    0.0000    0.0000 C   0  0  0  0  0  0  0  0  0  0  0  0
    2.8579    0.8250    0.0000 C   0  0  0  0  0  0  0  0  0  0  0  0
    3.5724   -0.4125    0.0000 N   0  0  0  0  0  0  0  0  0  0  0  0
    3.5724   -1.2375    0.0000 C   0  0  0  0  0  0  0  0  0  0  0  0
    2.8579   -1.6500    0.0000 C   0  0  0  0  0  0  0  0  0  0  0  0
    2.1434   -1.2375    0.0000 C   0  0  0  0  0  0  0  0  0  0  0  0
    1.4289   -1.6500    0.0000 C   0  0  0  0  0  0  0  0  0  0  0  0
   -1.4289   -3.3000    0.0000 N   0  0  0  0  0  0  0  0  0  0  0  0
  1  2  1  0  0  0  0
  3  2  1  0  0  0  0
  3  4  1  6  0  0  0
  3  5  1  0  0  0  0
  5  6  2  0  0  0  0
  5  7  1  0  0  0  0
  7  8  1  0  0  0  0
  8  9  4  0  0  0  0
  9 10  4  0  0  0  0
 10 11  4  0  0  0  0
 11 12  1  0  0  0  0
 12 13  4  0  0  0  0
 13 14  1  0  0  0  0
 14 15  4  0  0  0  0
 15 16  4  0  0  0  0
 16 17  4  0  0  0  0
 17 18  4  0  0  0  0
 18 19  1  0  0  0  0
 18 20  4  0  0  0  0
 14 20  4  0  0  0  0
 13 21  4  0  0  0  0
 21 22  4  0  0  0  0
 22 23  4  0  0  0  0
 23 24  4  0  0  0  0
 24 25  1  0  0  0  0
 24 26  4  0  0  0  0
 26 27  4  0  0  0  0
 27 28  4  0  0  0  0
 12 28  4  0  0  0  0
 22 28  4  0  0  0  0
 11 29  4  0  0  0  0
 29 30  1  0  0  0  0
 30 31  3  0  0  0  0
 31 32  1  0  0  0  0
 32 33  4  0  0  0  0
 33 34  4  0  0  0  0
 34 35  4  0  0  0  0
 35 36  4  0  0  0  0
 36 37  1  0  0  0  0
 36 38  4  0  0  0  0
 38 39  4  0  0  0  0
 39 40  4  0  0  0  0
 40 41  4  0  0  0  0
 35 41  4  0  0  0  0
 41 42  4  0  0  0  0
 32 42  4  0  0  0  0
 29 43  4  0  0  0  0
  8 43  4  0  0  0  0
M  END
>  <CdId>
317

>  <Mol Weight>
565.681

>  <Formula>
C35H31N7O

>  <Molecule ChEMBL ID>
CHEMBL3911035

>  <Molecule Max Phase>
None

>  <Molecular Weight>
565.68

>  <#RO5 Violations>
2

>  <AlogP>
5.88

>  <Compound Key>
BDBM253992

>  <Standard Type>
IC50

>  <Standard Relation>
'='

>  <Standard Value>
900.0

>  <Standard Units>
nM

$$$$

  Mrv2114 03112311372D          

 33 36  0  0  1  0            999 V2000
   -2.7512   -1.7116    0.0000 C   0  0  0  0  0  0  0  0  0  0  0  0
   -2.7512   -2.5366    0.0000 C   0  0  0  0  0  0  0  0  0  0  0  0
   -2.0837   -3.0215    0.0000 C   0  0  0  0  0  0  0  0  0  0  0  0
   -2.3387   -3.8062    0.0000 C   0  0  0  0  0  0  0  0  0  0  0  0
   -1.8538   -4.4736    0.0000 C   0  0  0  0  0  0  0  0  0  0  0  0
   -1.0333   -4.3874    0.0000 C   0  0  0  0  0  0  0  0  0  0  0  0
   -0.5484   -5.0548    0.0000 C   0  0  0  0  0  0  0  0  0  0  0  0
   -0.8839   -5.8085    0.0000 C   0  0  0  0  0  0  0  0  0  0  0  0
   -0.3990   -6.4759    0.0000 C   0  0  0  0  0  0  0  0  0  0  0  0
   -0.7345   -7.2296    0.0000 O   0  0  0  0  0  0  0  0  0  0  0  0
    0.4215   -6.3897    0.0000 C   0  0  2  0  0  0  0  0  0  0  0  0
    0.7571   -5.6360    0.0000 C   0  0  0  0  0  0  0  0  0  0  0  0
    1.5775   -5.5498    0.0000 C   0  0  0  0  0  0  0  0  0  0  0  0
    2.0625   -6.2172    0.0000 C   0  0  0  0  0  0  0  0  0  0  0  0
    1.7269   -6.9709    0.0000 C   0  0  0  0  0  0  0  0  0  0  0  0
    0.9064   -7.0571    0.0000 C   0  0  1  0  0  0  0  0  0  0  0  0
    0.5709   -7.8108    0.0000 C   0  0  0  0  0  0  0  0  0  0  0  0
    1.0558   -8.4782    0.0000 O   0  0  0  0  0  0  0  0  0  0  0  0
   -0.2496   -7.8970    0.0000 N   0  0  0  0  0  0  0  0  0  0  0  0
   -0.5852   -8.6507    0.0000 C   0  0  0  0  0  0  0  0  0  0  0  0
   -0.1727   -9.3652    0.0000 C   0  0  0  0  0  0  0  0  0  0  0  0
   -0.7247   -9.9783    0.0000 N   0  0  0  0  0  0  0  0  0  0  0  0
   -1.4784   -9.6427    0.0000 N   0  0  0  0  0  0  0  0  0  0  0  0
   -2.1929  -10.0552    0.0000 C   0  0  0  0  0  0  0  0  0  0  0  0
   -1.3922   -8.8222    0.0000 C   0  0  0  0  0  0  0  0  0  0  0  0
   -2.0052   -8.2702    0.0000 S   0  0  0  0  0  0  0  0  0  0  0  0
   -2.6183   -7.7182    0.0000 N   0  0  0  0  0  0  0  0  0  0  0  0
   -1.4532   -7.6571    0.0000 O   0  0  0  0  0  0  0  0  0  0  0  0
   -2.5573   -8.8833    0.0000 O   0  0  0  0  0  0  0  0  0  0  0  0
   -1.7044   -5.8947    0.0000 C   0  0  0  0  0  0  0  0  0  0  0  0
   -2.1893   -5.2273    0.0000 C   0  0  0  0  0  0  0  0  0  0  0  0
   -3.1637   -3.8062    0.0000 N   0  0  0  0  0  0  0  0  0  0  0  0
   -3.4186   -3.0215    0.0000 N   0  0  0  0  0  0  0  0  0  0  0  0
  1  2  1  0  0  0  0
  2  3  4  0  0  0  0
  3  4  4  0  0  0  0
  4  5  1  0  0  0  0
  5  6  4  0  0  0  0
  6  7  4  0  0  0  0
  7  8  4  0  0  0  0
  8  9  1  0  0  0  0
  9 10  2  0  0  0  0
 11  9  1  6  0  0  0
 11 12  1  0  0  0  0
 12 13  1  0  0  0  0
 13 14  1  0  0  0  0
 14 15  1  0  0  0  0
 16 15  1  0  0  0  0
 11 16  1  0  0  0  0
 16 17  1  1  0  0  0
 17 18  2  0  0  0  0
 17 19  1  0  0  0  0
 19 20  1  0  0  0  0
 20 21  4  0  0  0  0
 21 22  4  0  0  0  0
 22 23  4  0  0  0  0
 23 24  1  0  0  0  0
 23 25  4  0  0  0  0
 20 25  4  0  0  0  0
 25 26  1  0  0  0  0
 26 27  1  0  0  0  0
 26 28  2  0  0  0  0
 26 29  2  0  0  0  0
  8 30  4  0  0  0  0
 30 31  4  0  0  0  0
  5 31  4  0  0  0  0
  4 32  4  0  0  0  0
 32 33  4  0  0  0  0
  2 33  4  0  0  0  0
M  STY  1   1 DAT
M  SAL   1  1  33
M  SDT   1 MRV_IMPLICIT_H                                        
M  SDD   1     0.0000    0.0000    DR    ALL  0       0  
M  SED   1 IMPL_H1
M  END
>  <CdId>
318

>  <Mol Weight>
470.55

>  <Formula>
C22H26N6O4S

>  <Molecule ChEMBL ID>
CHEMBL4474619

>  <Molecule Max Phase>
None

>  <Molecular Weight>
470.56

>  <#RO5 Violations>
0

>  <AlogP>
2.39

>  <Compound Key>
11

>  <Standard Type>
IC50

>  <Standard Relation>
'>'

>  <Standard Value>
20000.0

>  <Standard Units>
nM

$$$$

  Mrv2114 03112311372D          

 25 25  0  0  1  0            999 V2000
    4.2868   -9.0750    0.0000 C   0  0  0  0  0  0  0  0  0  0  0  0
    5.0013   -8.6625    0.0000 C   0  0  0  0  0  0  0  0  0  0  0  0
    5.7158   -9.0750    0.0000 C   0  0  0  0  0  0  0  0  0  0  0  0
    6.4302   -8.6625    0.0000 C   0  0  0  0  0  0  0  0  0  0  0  0
    7.1447   -9.0750    0.0000 C   0  0  0  0  0  0  0  0  0  0  0  0
    7.8592   -8.6625    0.0000 C   0  0  0  0  0  0  0  0  0  0  0  0
    8.5737   -9.0750    0.0000 C   0  0  0  0  0  0  0  0  0  0  0  0
    9.2881   -8.6625    0.0000 C   0  0  0  0  0  0  0  0  0  0  0  0
   10.0026   -9.0750    0.0000 C   0  0  0  0  0  0  0  0  0  0  0  0
   10.7171   -8.6625    0.0000 C   0  0  2  0  0  0  0  0  0  0  0  0
   10.7171   -7.8375    0.0000 O   0  0  0  0  0  0  0  0  0  0  0  0
   11.4315   -9.0750    0.0000 C   0  0  0  0  0  0  0  0  0  0  0  0
   12.1460   -8.6625    0.0000 C   0  0  0  0  0  0  0  0  0  0  0  0
   12.1460   -7.8375    0.0000 O   0  0  0  0  0  0  0  0  0  0  0  0
   12.8605   -9.0750    0.0000 C   0  0  0  0  0  0  0  0  0  0  0  0
   13.5749   -8.6625    0.0000 C   0  0  0  0  0  0  0  0  0  0  0  0
   14.2894   -9.0750    0.0000 C   0  0  0  0  0  0  0  0  0  0  0  0
   15.0039   -8.6625    0.0000 C   0  0  0  0  0  0  0  0  0  0  0  0
   15.7184   -9.0750    0.0000 C   0  0  0  0  0  0  0  0  0  0  0  0
   15.7184   -9.9000    0.0000 C   0  0  0  0  0  0  0  0  0  0  0  0
   16.4328  -10.3125    0.0000 O   0  0  0  0  0  0  0  0  0  0  0  0
   15.0039  -10.3125    0.0000 C   0  0  0  0  0  0  0  0  0  0  0  0
   15.0039  -11.1375    0.0000 O   0  0  0  0  0  0  0  0  0  0  0  0
   14.2894  -11.5500    0.0000 C   0  0  0  0  0  0  0  0  0  0  0  0
   14.2894   -9.9000    0.0000 C   0  0  0  0  0  0  0  0  0  0  0  0
  1  2  1  0  0  0  0
  2  3  1  0  0  0  0
  3  4  1  0  0  0  0
  4  5  1  0  0  0  0
  5  6  1  0  0  0  0
  6  7  1  0  0  0  0
  7  8  1  0  0  0  0
  8  9  1  0  0  0  0
 10  9  1  0  0  0  0
 10 11  1  6  0  0  0
 10 12  1  0  0  0  0
 12 13  1  0  0  0  0
 13 14  2  0  0  0  0
 13 15  1  0  0  0  0
 15 16  1  0  0  0  0
 16 17  1  0  0  0  0
 17 18  4  0  0  0  0
 18 19  4  0  0  0  0
 19 20  4  0  0  0  0
 20 21  1  0  0  0  0
 20 22  4  0  0  0  0
 22 23  1  0  0  0  0
 23 24  1  0  0  0  0
 22 25  4  0  0  0  0
 17 25  4  0  0  0  0
M  END
>  <CdId>
319

>  <Mol Weight>
350.499

>  <Formula>
C21H34O4

>  <Molecule ChEMBL ID>
CHEMBL549472

>  <Molecule Max Phase>
None

>  <Molecular Weight>
350.5

>  <#RO5 Violations>
0

>  <AlogP>
4.79

>  <Compound Key>
10-Gingerol

>  <Standard Type>
IC50

>  <Standard Relation>
'='

>  <Standard Value>
2000.0

>  <Standard Units>
nM

$$$$

  Mrv2114 03112311372D          

 26 28  0  0  0  0            999 V2000
   -1.8414   -1.7605    0.0000 C   0  0  0  0  0  0  0  0  0  0  0  0
   -1.4289   -2.4750    0.0000 C   0  0  0  0  0  0  0  0  0  0  0  0
   -0.6039   -2.4750    0.0000 C   0  0  0  0  0  0  0  0  0  0  0  0
   -0.1914   -3.1895    0.0000 C   0  0  0  0  0  0  0  0  0  0  0  0
    0.6336   -3.1895    0.0000 N   0  0  0  0  0  0  0  0  0  0  0  0
    1.0461   -3.9039    0.0000 C   0  0  0  0  0  0  0  0  0  0  0  0
    0.7105   -4.6576    0.0000 C   0  0  0  0  0  0  0  0  0  0  0  0
    1.3236   -5.2096    0.0000 C   0  0  0  0  0  0  0  0  0  0  0  0
    2.0381   -4.7971    0.0000 N   0  0  0  0  0  0  0  0  0  0  0  0
    1.8665   -3.9902    0.0000 N   0  0  0  0  0  0  0  0  0  0  0  0
    2.4186   -3.3771    0.0000 C   0  0  0  0  0  0  0  0  0  0  0  0
    2.1636   -2.5925    0.0000 C   0  0  0  0  0  0  0  0  0  0  0  0
    2.7157   -1.9794    0.0000 C   0  0  0  0  0  0  0  0  0  0  0  0
    3.5226   -2.1509    0.0000 C   0  0  0  0  0  0  0  0  0  0  0  0
    3.7776   -2.9355    0.0000 C   0  0  0  0  0  0  0  0  0  0  0  0
    3.2255   -3.5486    0.0000 C   0  0  0  0  0  0  0  0  0  0  0  0
    1.0461   -2.4750    0.0000 S   0  0  0  0  0  0  0  0  0  0  0  0
    1.7605   -2.8875    0.0000 O   0  0  0  0  0  0  0  0  0  0  0  0
    0.3316   -2.0625    0.0000 O   0  0  0  0  0  0  0  0  0  0  0  0
    1.4586   -1.7605    0.0000 C   0  0  0  0  0  0  0  0  0  0  0  0
    1.0461   -1.0461    0.0000 C   0  0  0  0  0  0  0  0  0  0  0  0
    1.4586   -0.3316    0.0000 C   0  0  0  0  0  0  0  0  0  0  0  0
    2.2836   -0.3316    0.0000 C   0  0  0  0  0  0  0  0  0  0  0  0
    2.6961    0.3829    0.0000 N   0  0  0  0  0  0  0  0  0  0  0  0
    2.6961   -1.0461    0.0000 C   0  0  0  0  0  0  0  0  0  0  0  0
    2.2836   -1.7605    0.0000 C   0  0  0  0  0  0  0  0  0  0  0  0
  1  2  1  0  0  0  0
  2  3  1  0  0  0  0
  3  4  1  0  0  0  0
  4  5  1  0  0  0  0
  5  6  1  0  0  0  0
  6  7  4  0  0  0  0
  7  8  4  0  0  0  0
  8  9  4  0  0  0  0
  9 10  4  0  0  0  0
  6 10  4  0  0  0  0
 10 11  1  0  0  0  0
 11 12  4  0  0  0  0
 12 13  4  0  0  0  0
 13 14  4  0  0  0  0
 14 15  4  0  0  0  0
 15 16  4  0  0  0  0
 11 16  4  0  0  0  0
  5 17  1  0  0  0  0
 17 18  2  0  0  0  0
 17 19  2  0  0  0  0
 17 20  1  0  0  0  0
 20 21  4  0  0  0  0
 21 22  4  0  0  0  0
 22 23  4  0  0  0  0
 23 24  1  0  0  0  0
 23 25  4  0  0  0  0
 25 26  4  0  0  0  0
 20 26  4  0  0  0  0
M  END
>  <CdId>
320

>  <Mol Weight>
370.47

>  <Formula>
C19H22N4O2S

>  <Molecule ChEMBL ID>
CHEMBL331485

>  <Molecule Max Phase>
None

>  <Molecular Weight>
370.48

>  <#RO5 Violations>
0

>  <AlogP>
3.45

>  <Compound Key>
10

>  <Standard Type>
IC50

>  <Standard Relation>
'='

>  <Standard Value>
4000.0

>  <Standard Units>
nM

$$$$

  Mrv2114 03112311372D          

 34 39  0  0  1  0            999 V2000
   -2.5706   -0.4653    0.0000 C   0  0  0  0  0  0  0  0  0  0  0  0
   -1.9032   -0.9502    0.0000 C   0  0  0  0  0  0  0  0  0  0  0  0
   -1.1495   -0.6146    0.0000 C   0  0  0  0  0  0  0  0  0  0  0  0
   -0.4820   -1.0995    0.0000 C   0  0  0  0  0  0  0  0  0  0  0  0
   -0.5683   -1.9200    0.0000 C   0  0  0  0  0  0  0  0  0  0  0  0
    0.0992   -2.4049    0.0000 C   0  0  0  0  0  0  0  0  0  0  0  0
    0.8838   -2.1500    0.0000 C   0  0  0  0  0  0  0  0  0  0  0  0
    1.1387   -1.3654    0.0000 C   0  0  0  0  0  0  0  0  0  0  0  0
    0.6538   -0.6979    0.0000 N   0  0  0  0  0  0  0  0  0  0  0  0
    1.1387   -0.0305    0.0000 N   0  0  0  0  0  0  0  0  0  0  0  0
    0.8838    0.7541    0.0000 C   0  0  0  0  0  0  0  0  0  0  0  0
    1.9233   -0.2854    0.0000 C   0  0  0  0  0  0  0  0  0  0  0  0
    2.6378    0.1271    0.0000 N   0  0  0  0  0  0  0  0  0  0  0  0
    3.3523   -0.2854    0.0000 C   0  0  0  0  0  0  0  0  0  0  0  0
    3.3523   -1.1104    0.0000 N   0  0  0  0  0  0  0  0  0  0  0  0
    2.6378   -1.5229    0.0000 C   0  0  0  0  0  0  0  0  0  0  0  0
    2.6378   -2.3479    0.0000 N   0  0  0  0  0  0  0  0  0  0  0  0
    3.3053   -2.8329    0.0000 C   0  0  0  0  0  0  0  0  0  0  0  0
    3.0503   -3.6175    0.0000 C   0  0  0  0  0  0  0  0  0  0  0  0
    2.2253   -3.6175    0.0000 C   0  0  2  0  0  0  0  0  0  0  0  0
    1.7404   -4.2849    0.0000 N   0  0  0  0  0  0  0  0  0  0  0  0
    2.0759   -5.0386    0.0000 C   0  0  0  0  0  0  0  0  0  0  0  0
    1.5910   -5.7060    0.0000 C   0  0  0  0  0  0  0  0  0  0  0  0
    0.7705   -5.6198    0.0000 C   0  0  0  0  0  0  0  0  0  0  0  0
    0.4350   -4.8661    0.0000 C   0  0  0  0  0  0  0  0  0  0  0  0
    0.9199   -4.1987    0.0000 C   0  0  0  0  0  0  0  0  0  0  0  0
    1.9704   -2.8329    0.0000 C   0  0  0  0  0  0  0  0  0  0  0  0
    1.9233   -1.1104    0.0000 C   0  0  0  0  0  0  0  0  0  0  0  0
    1.3687   -2.8174    0.0000 C   0  0  0  0  0  0  0  0  0  0  0  0
    0.8838   -3.4849    0.0000 N   0  0  0  0  0  0  0  0  0  0  0  0
    0.0992   -3.2299    0.0000 N   0  0  0  0  0  0  0  0  0  0  0  0
   -0.5683   -3.7149    0.0000 C   0  0  0  0  0  0  0  0  0  0  0  0
   -1.3220   -2.2556    0.0000 C   0  0  0  0  0  0  0  0  0  0  0  0
   -1.9894   -1.7707    0.0000 C   0  0  0  0  0  0  0  0  0  0  0  0
  1  2  1  0  0  0  0
  2  3  4  0  0  0  0
  3  4  4  0  0  0  0
  4  5  4  0  0  0  0
  5  6  1  0  0  0  0
  6  7  4  0  0  0  0
  7  8  1  0  0  0  0
  8  9  4  0  0  0  0
  9 10  4  0  0  0  0
 10 11  1  0  0  0  0
 10 12  4  0  0  0  0
 12 13  4  0  0  0  0
 13 14  4  0  0  0  0
 14 15  4  0  0  0  0
 15 16  4  0  0  0  0
 16 17  1  0  0  0  0
 17 18  1  0  0  0  0
 18 19  1  0  0  0  0
 20 19  1  0  0  0  0
 20 21  1  6  0  0  0
 21 22  1  0  0  0  0
 22 23  1  0  0  0  0
 23 24  1  0  0  0  0
 24 25  1  0  0  0  0
 25 26  1  0  0  0  0
 21 26  1  0  0  0  0
 20 27  1  0  0  0  0
 17 27  1  0  0  0  0
 16 28  4  0  0  0  0
  8 28  4  0  0  0  0
 12 28  4  0  0  0  0
  7 29  4  0  0  0  0
 29 30  4  0  0  0  0
 30 31  4  0  0  0  0
  6 31  4  0  0  0  0
 31 32  1  0  0  0  0
  5 33  4  0  0  0  0
 33 34  4  0  0  0  0
  2 34  4  0  0  0  0
M  END
>  <CdId>
321

>  <Mol Weight>
456.598

>  <Formula>
C26H32N8

>  <Molecule ChEMBL ID>
CHEMBL3527048

>  <Molecule Max Phase>
None

>  <Molecular Weight>
456.6

>  <#RO5 Violations>
0

>  <AlogP>
3.8

>  <Compound Key>
CYP3cide, PF-04981517

>  <Standard Type>
IC50

>  <Standard Relation>
'='

>  <Standard Value>
78000.0

>  <Standard Units>
nM

$$$$

  Mrv2114 03112311372D          

 26 27  0  0  0  0            999 V2000
    0.0000    0.0000    0.0000 Cl  0  0  0  0  0  0  0  0  0  0  0  0
    1.7679    1.0966    0.0000 O   0  0  0  0  0  0  0  0  0  0  0  0
    2.4823    0.6841    0.0000 C   0  0  0  0  0  0  0  0  0  0  0  0
    2.4823   -0.1409    0.0000 O   0  0  0  0  0  0  0  0  0  0  0  0
    3.1968    1.0966    0.0000 C   0  0  0  0  0  0  0  0  0  0  0  0
    3.9113    0.6841    0.0000 N   0  0  0  0  0  0  0  0  0  0  0  0
    4.6257    1.0966    0.0000 C   0  0  0  0  0  0  0  0  0  0  0  0
    4.6257    1.9216    0.0000 O   0  0  0  0  0  0  0  0  0  0  0  0
    5.3402    0.6841    0.0000 C   0  0  0  0  0  0  0  0  0  0  0  0
    6.0547    1.0966    0.0000 C   0  0  0  0  0  0  0  0  0  0  0  0
    6.0547    1.9216    0.0000 O   0  0  0  0  0  0  0  0  0  0  0  0
    6.7692    0.6841    0.0000 C   0  0  0  0  0  0  0  0  0  0  0  0
    6.7692   -0.1409    0.0000 C   0  0  0  0  0  0  0  0  0  0  0  0
    7.4836   -0.5534    0.0000 C   0  0  0  0  0  0  0  0  0  0  0  0
    8.1981   -0.1409    0.0000 C   0  0  0  0  0  0  0  0  0  0  0  0
    8.9126   -0.5534    0.0000 C   0  0  0  0  0  0  0  0  0  0  0  0
    9.6270   -0.1409    0.0000 C   0  0  0  0  0  0  0  0  0  0  0  0
   10.3415   -0.5534    0.0000 C   0  0  0  0  0  0  0  0  0  0  0  0
   10.3415   -1.3784    0.0000 C   0  0  0  0  0  0  0  0  0  0  0  0
    9.6270   -1.7909    0.0000 C   0  0  0  0  0  0  0  0  0  0  0  0
    8.9126   -1.3784    0.0000 C   0  0  0  0  0  0  0  0  0  0  0  0
    6.0547   -0.5534    0.0000 N   0  0  0  0  0  0  0  0  0  0  0  0
    5.8832   -1.3604    0.0000 N   0  0  0  0  0  0  0  0  0  0  0  0
    5.0627   -1.4466    0.0000 C   0  0  0  0  0  0  0  0  0  0  0  0
    4.7271   -0.6929    0.0000 N   0  0  0  0  0  0  0  0  0  0  0  0
    5.3402   -0.1409    0.0000 C   0  0  0  0  0  0  0  0  0  0  0  0
  2  3  2  0  0  0  0
  3  4  1  0  0  0  0
  3  5  1  0  0  0  0
  5  6  1  0  0  0  0
  6  7  1  0  0  0  0
  7  8  2  0  0  0  0
  7  9  1  0  0  0  0
  9 10  4  0  0  0  0
 10 11  1  0  0  0  0
 10 12  4  0  0  0  0
 12 13  4  0  0  0  0
 13 14  1  0  0  0  0
 14 15  1  0  0  0  0
 15 16  1  0  0  0  0
 16 17  4  0  0  0  0
 17 18  4  0  0  0  0
 18 19  4  0  0  0  0
 19 20  4  0  0  0  0
 20 21  4  0  0  0  0
 16 21  4  0  0  0  0
 13 22  4  0  0  0  0
 22 23  4  0  0  0  0
 23 24  4  0  0  0  0
 24 25  4  0  0  0  0
 25 26  4  0  0  0  0
  9 26  4  0  0  0  0
 22 26  4  0  0  0  0
M  END
>  <CdId>
322

>  <Mol Weight>
376.8

>  <Formula>
C17H17ClN4O4

>  <Molecule ChEMBL ID>
CHEMBL4166742

>  <Molecule Max Phase>
None

>  <Molecular Weight>
376.8

>  <#RO5 Violations>
0

>  <AlogP>
1.03

>  <Compound Key>
14; JTZ-951

>  <Standard Type>
IC50

>  <Standard Relation>
'>'

>  <Standard Value>
100000.0

>  <Standard Units>
nM

$$$$

  Mrv2114 03112311372D          

 25 27  0  0  0  0            999 V2000
    0.0000   -1.6500    0.0000 C   0  0  0  0  0  0  0  0  0  0  0  0
    0.7145   -2.0625    0.0000 C   0  0  0  0  0  0  0  0  0  0  0  0
    1.4289   -1.6500    0.0000 C   0  0  0  0  0  0  0  0  0  0  0  0
    1.4289   -0.8250    0.0000 O   0  0  0  0  0  0  0  0  0  0  0  0
    2.1434   -2.0625    0.0000 N   0  0  0  0  0  0  0  0  0  0  0  0
    2.8579   -1.6500    0.0000 C   0  0  0  0  0  0  0  0  0  0  0  0
    2.8579   -0.8250    0.0000 C   0  0  0  0  0  0  0  0  0  0  0  0
    2.1434   -0.4125    0.0000 C   0  0  0  0  0  0  0  0  0  0  0  0
    2.1434    0.4125    0.0000 C   0  0  0  0  0  0  0  0  0  0  0  0
    2.8579    0.8250    0.0000 C   0  0  0  0  0  0  0  0  0  0  0  0
    3.5724    0.4125    0.0000 C   0  0  0  0  0  0  0  0  0  0  0  0
    4.2868    0.8250    0.0000 O   0  0  0  0  0  0  0  0  0  0  0  0
    3.5724   -0.4125    0.0000 C   0  0  0  0  0  0  0  0  0  0  0  0
    2.1434   -2.8875    0.0000 C   0  0  0  0  0  0  0  0  0  0  0  0
    2.8579   -3.3000    0.0000 C   0  0  0  0  0  0  0  0  0  0  0  0
    2.8579   -4.1250    0.0000 C   0  0  0  0  0  0  0  0  0  0  0  0
    3.5724   -4.5375    0.0000 F   0  0  0  0  0  0  0  0  0  0  0  0
    2.1434   -4.5375    0.0000 C   0  0  0  0  0  0  0  0  0  0  0  0
    1.4289   -4.1250    0.0000 C   0  0  0  0  0  0  0  0  0  0  0  0
    0.7145   -4.5375    0.0000 C   0  0  0  0  0  0  0  0  0  0  0  0
    0.6282   -5.3580    0.0000 N   0  0  0  0  0  0  0  0  0  0  0  0
   -0.1787   -5.5295    0.0000 N   0  0  0  0  0  0  0  0  0  0  0  0
   -0.5912   -4.8150    0.0000 N   0  0  0  0  0  0  0  0  0  0  0  0
   -0.0392   -4.2019    0.0000 N   0  0  0  0  0  0  0  0  0  0  0  0
    1.4289   -3.3000    0.0000 C   0  0  0  0  0  0  0  0  0  0  0  0
  1  2  1  0  0  0  0
  2  3  1  0  0  0  0
  3  4  2  0  0  0  0
  3  5  1  0  0  0  0
  5  6  1  0  0  0  0
  6  7  1  0  0  0  0
  7  8  4  0  0  0  0
  8  9  4  0  0  0  0
  9 10  4  0  0  0  0
 10 11  4  0  0  0  0
 11 12  1  0  0  0  0
 11 13  4  0  0  0  0
  7 13  4  0  0  0  0
  5 14  1  0  0  0  0
 14 15  4  0  0  0  0
 15 16  4  0  0  0  0
 16 17  1  0  0  0  0
 16 18  4  0  0  0  0
 18 19  4  0  0  0  0
 19 20  1  0  0  0  0
 20 21  4  0  0  0  0
 21 22  4  0  0  0  0
 22 23  4  0  0  0  0
 23 24  4  0  0  0  0
 20 24  4  0  0  0  0
 19 25  4  0  0  0  0
 14 25  4  0  0  0  0
M  STY  1   1 DAT
M  SAL   1  1  24
M  SDT   1 MRV_IMPLICIT_H                                        
M  SDD   1     0.0000    0.0000    DR    ALL  0       0  
M  SED   1 IMPL_H1
M  END
>  <CdId>
323

>  <Mol Weight>
341.346

>  <Formula>
C17H16FN5O2

>  <Molecule ChEMBL ID>
CHEMBL2036217

>  <Molecule Max Phase>
None

>  <Molecular Weight>
341.35

>  <#RO5 Violations>
0

>  <AlogP>
2.65

>  <Compound Key>
55

>  <Standard Type>
IC50

>  <Standard Relation>
'='

>  <Standard Value>
970.0

>  <Standard Units>
nM

$$$$

  Mrv2114 03112311372D          

 17 16  0  0  0  0            999 V2000
   -1.8080    0.9824    0.0000 C   0  0  0  0  0  0  0  0  0  0  0  0
   -1.0935    0.5699    0.0000 C   0  0  0  0  0  0  0  0  0  0  0  0
   -0.3790    0.9824    0.0000 C   0  0  0  0  0  0  0  0  0  0  0  0
   -0.3790    1.8074    0.0000 C   0  0  0  0  0  0  0  0  0  0  0  0
    0.3354    2.2199    0.0000 C   0  0  0  0  0  0  0  0  0  0  0  0
    1.0499    1.8074    0.0000 N   0  0  0  0  0  0  0  0  0  0  0  0
    1.0499    0.9824    0.0000 C   0  0  0  0  0  0  0  0  0  0  0  0
    0.3354    0.5699    0.0000 C   0  0  0  0  0  0  0  0  0  0  0  0
    0.3354   -0.2551    0.0000 C   0  0  0  0  0  0  0  0  0  0  0  0
    1.0029   -0.7400    0.0000 C   0  0  0  0  0  0  0  0  0  0  0  0
    0.7479   -1.5246    0.0000 C   0  0  0  0  0  0  0  0  0  0  0  0
   -0.0771   -1.5246    0.0000 C   0  0  0  0  0  0  0  0  0  0  0  0
   -0.5620   -2.1920    0.0000 C   0  0  0  0  0  0  0  0  0  0  0  0
   -0.2264   -2.9457    0.0000 N   0  0  0  0  0  0  0  0  0  0  0  0
   -0.3320   -0.7400    0.0000 O   0  0  0  0  0  0  0  0  0  0  0  0
    3.0535    0.0000    0.0000 Cl  0  0  0  0  0  0  0  0  0  0  0  0
    0.0000   -4.5957    0.0000 Cl  0  0  0  0  0  0  0  0  0  0  0  0
  1  2  1  0  0  0  0
  2  3  1  0  0  0  0
  3  4  4  0  0  0  0
  4  5  4  0  0  0  0
  5  6  4  0  0  0  0
  6  7  4  0  0  0  0
  7  8  4  0  0  0  0
  3  8  4  0  0  0  0
  8  9  1  0  0  0  0
  9 10  4  0  0  0  0
 10 11  4  0  0  0  0
 11 12  4  0  0  0  0
 12 13  1  0  0  0  0
 13 14  1  0  0  0  0
 12 15  4  0  0  0  0
  9 15  4  0  0  0  0
M  END
>  <CdId>
324

>  <Mol Weight>
275.17

>  <Formula>
C12H16Cl2N2O

>  <Molecule ChEMBL ID>
CHEMBL4173133

>  <Molecule Max Phase>
None

>  <Molecular Weight>
275.18

>  <#RO5 Violations>
0

>  <AlogP>
2.36

>  <Compound Key>
5i

>  <Standard Type>
IC50

>  <Standard Relation>
'='

>  <Standard Value>
73000.0

>  <Standard Units>
nM

$$$$

  Mrv2114 03112311372D          

 33 36  0  0  0  0            999 V2000
    4.8946    7.6527    0.0000 C   0  0  0  0  0  0  0  0  0  0  0  0
    4.1801    7.2402    0.0000 S   0  0  0  0  0  0  0  0  0  0  0  0
    3.7676    7.9547    0.0000 O   0  0  0  0  0  0  0  0  0  0  0  0
    4.5926    6.5257    0.0000 O   0  0  0  0  0  0  0  0  0  0  0  0
    3.4656    6.8277    0.0000 C   0  0  0  0  0  0  0  0  0  0  0  0
    3.4656    6.0027    0.0000 C   0  0  0  0  0  0  0  0  0  0  0  0
    2.7512    5.5902    0.0000 C   0  0  0  0  0  0  0  0  0  0  0  0
    2.0367    6.0027    0.0000 C   0  0  0  0  0  0  0  0  0  0  0  0
    1.3222    5.5902    0.0000 C   0  0  0  0  0  0  0  0  0  0  0  0
    1.3222    4.7652    0.0000 N   0  0  0  0  0  0  0  0  0  0  0  0
    0.6078    4.3527    0.0000 C   0  0  0  0  0  0  0  0  0  0  0  0
   -0.1067    4.7652    0.0000 O   0  0  0  0  0  0  0  0  0  0  0  0
    0.6078    3.5277    0.0000 C   0  0  0  0  0  0  0  0  0  0  0  0
   -0.1067    3.1152    0.0000 C   0  0  0  0  0  0  0  0  0  0  0  0
   -0.1067    2.2902    0.0000 C   0  0  0  0  0  0  0  0  0  0  0  0
   -0.8212    1.8777    0.0000 C   0  0  0  0  0  0  0  0  0  0  0  0
   -1.5356    2.2902    0.0000 C   0  0  0  0  0  0  0  0  0  0  0  0
   -1.5356    3.1152    0.0000 C   0  0  0  0  0  0  0  0  0  0  0  0
   -0.8212    3.5277    0.0000 C   0  0  0  0  0  0  0  0  0  0  0  0
    2.0367    4.3527    0.0000 C   0  0  0  0  0  0  0  0  0  0  0  0
    2.7512    4.7652    0.0000 C   0  0  0  0  0  0  0  0  0  0  0  0
    3.4656    4.3527    0.0000 C   0  0  0  0  0  0  0  0  0  0  0  0
    4.1801    4.7652    0.0000 F   0  0  0  0  0  0  0  0  0  0  0  0
    3.4656    3.5277    0.0000 C   0  0  0  0  0  0  0  0  0  0  0  0
    2.7512    3.1152    0.0000 C   0  0  0  0  0  0  0  0  0  0  0  0
    2.7512    2.2902    0.0000 C   0  0  0  0  0  0  0  0  0  0  0  0
    3.4186    1.8053    0.0000 N   0  0  0  0  0  0  0  0  0  0  0  0
    3.1637    1.0206    0.0000 N   0  0  0  0  0  0  0  0  0  0  0  0
    2.3387    1.0206    0.0000 N   0  0  0  0  0  0  0  0  0  0  0  0
    2.0837    1.8053    0.0000 N   0  0  0  0  0  0  0  0  0  0  0  0
    2.0367    3.5277    0.0000 C   0  0  0  0  0  0  0  0  0  0  0  0
    2.0367    6.8277    0.0000 C   0  0  0  0  0  0  0  0  0  0  0  0
    2.7512    7.2402    0.0000 C   0  0  0  0  0  0  0  0  0  0  0  0
  1  2  1  0  0  0  0
  2  3  2  0  0  0  0
  2  4  2  0  0  0  0
  2  5  1  0  0  0  0
  5  6  4  0  0  0  0
  6  7  4  0  0  0  0
  7  8  4  0  0  0  0
  8  9  1  0  0  0  0
  9 10  1  0  0  0  0
 10 11  1  0  0  0  0
 11 12  2  0  0  0  0
 11 13  1  0  0  0  0
 13 14  1  0  0  0  0
 14 15  4  0  0  0  0
 15 16  4  0  0  0  0
 16 17  4  0  0  0  0
 17 18  4  0  0  0  0
 18 19  4  0  0  0  0
 14 19  4  0  0  0  0
 10 20  1  0  0  0  0
 20 21  4  0  0  0  0
 21 22  4  0  0  0  0
 22 23  1  0  0  0  0
 22 24  4  0  0  0  0
 24 25  4  0  0  0  0
 25 26  1  0  0  0  0
 26 27  4  0  0  0  0
 27 28  4  0  0  0  0
 28 29  4  0  0  0  0
 29 30  4  0  0  0  0
 26 30  4  0  0  0  0
 25 31  4  0  0  0  0
 20 31  4  0  0  0  0
  8 32  4  0  0  0  0
 32 33  4  0  0  0  0
  5 33  4  0  0  0  0
M  STY  1   1 DAT
M  SAL   1  1  30
M  SDT   1 MRV_IMPLICIT_H                                        
M  SDD   1     0.0000    0.0000    DR    ALL  0       0  
M  SED   1 IMPL_H1
M  END
>  <CdId>
325

>  <Mol Weight>
465.5

>  <Formula>
C23H20FN5O3S

>  <Molecule ChEMBL ID>
CHEMBL2036225

>  <Molecule Max Phase>
None

>  <Molecular Weight>
465.51

>  <#RO5 Violations>
0

>  <AlogP>
3.19

>  <Compound Key>
63

>  <Standard Type>
IC50

>  <Standard Relation>
'='

>  <Standard Value>
50.0

>  <Standard Units>
nM

$$$$

  Mrv2114 03112311372D          

 63 69  0  0  1  0            999 V2000
    6.4318    1.9249    0.0000 C   0  0  0  0  0  0  0  0  0  0  0  0
    6.0133    1.2139    0.0000 C   0  0  0  0  0  0  0  0  0  0  0  0
    5.1884    1.2208    0.0000 O   0  0  0  0  0  0  0  0  0  0  0  0
    6.4198    0.4960    0.0000 O   0  0  0  0  0  0  0  0  0  0  0  0
    6.0014   -0.2150    0.0000 C   0  0  1  0  0  0  0  0  0  0  0  0
    5.1596   -0.0606    0.0000 C   0  0  0  0  0  0  0  0  0  0  0  0
    4.9748    0.7434    0.0000 O   0  0  0  0  0  0  0  0  0  0  0  0
    4.4815   -0.5587    0.0000 C   0  0  1  0  0  0  0  0  0  0  0  0
    4.4835    0.2663    0.0000 C   0  0  0  0  0  0  0  0  0  0  0  0
    4.3872   -1.3782    0.0000 C   0  0  2  0  0  0  0  0  0  0  0  0
    4.9369   -2.0489    0.0000 C   0  0  2  0  0  0  0  0  0  0  0  0
    4.5221   -2.7620    0.0000 O   0  0  0  0  0  0  0  0  0  0  0  0
    4.9323   -3.4778    0.0000 C   0  0  0  0  0  0  0  0  0  0  0  0
    5.7573   -3.4804    0.0000 O   0  0  0  0  0  0  0  0  0  0  0  0
    4.5175   -4.1909    0.0000 C   0  0  0  0  0  0  0  0  0  0  0  0
    4.9278   -4.9067    0.0000 C   0  0  0  0  0  0  0  0  0  0  0  0
    4.5130   -5.6199    0.0000 C   0  0  0  0  0  0  0  0  0  0  0  0
    3.6880   -5.6172    0.0000 C   0  0  0  0  0  0  0  0  0  0  0  0
    3.2778   -4.9015    0.0000 C   0  0  0  0  0  0  0  0  0  0  0  0
    3.6926   -4.1883    0.0000 C   0  0  0  0  0  0  0  0  0  0  0  0
    5.7975   -2.1961    0.0000 C   0  0  2  0  0  0  0  0  0  0  0  0
    5.5340   -2.9779    0.0000 O   0  0  0  0  0  0  0  0  0  0  0  0
    6.5656   -2.5967    0.0000 C   0  0  0  0  0  0  0  0  0  0  0  0
    7.3134   -2.2025    0.0000 C   0  0  2  0  0  0  0  0  0  0  0  0
    8.0269   -2.6167    0.0000 O   0  0  0  0  0  0  0  0  0  0  0  0
    8.7424   -2.2058    0.0000 C   0  0  0  0  0  0  0  0  0  0  0  0
    8.7443   -1.3808    0.0000 O   0  0  0  0  0  0  0  0  0  0  0  0
    9.4559   -2.6200    0.0000 C   0  0  2  0  0  0  0  0  0  0  0  0
    9.4540   -3.4450    0.0000 O   0  0  0  0  0  0  0  0  0  0  0  0
   10.1713   -2.2092    0.0000 C   0  0  1  0  0  0  0  0  0  0  0  0
   10.8848   -2.6234    0.0000 N   0  0  0  0  0  0  0  0  0  0  0  0
   11.6003   -2.2125    0.0000 C   0  0  0  0  0  0  0  0  0  0  0  0
   11.6022   -1.3875    0.0000 O   0  0  0  0  0  0  0  0  0  0  0  0
   12.3138   -2.6267    0.0000 C   0  0  0  0  0  0  0  0  0  0  0  0
   13.0292   -2.2159    0.0000 C   0  0  0  0  0  0  0  0  0  0  0  0
   13.7427   -2.6300    0.0000 C   0  0  0  0  0  0  0  0  0  0  0  0
   13.7408   -3.4550    0.0000 C   0  0  0  0  0  0  0  0  0  0  0  0
   13.0253   -3.8659    0.0000 C   0  0  0  0  0  0  0  0  0  0  0  0
   12.3118   -3.4517    0.0000 C   0  0  0  0  0  0  0  0  0  0  0  0
   10.1732   -1.3842    0.0000 C   0  0  0  0  0  0  0  0  0  0  0  0
    9.4597   -0.9700    0.0000 C   0  0  0  0  0  0  0  0  0  0  0  0
    9.4617   -0.1450    0.0000 C   0  0  0  0  0  0  0  0  0  0  0  0
   10.1771    0.2658    0.0000 C   0  0  0  0  0  0  0  0  0  0  0  0
   10.8906   -0.1484    0.0000 C   0  0  0  0  0  0  0  0  0  0  0  0
   10.8887   -0.9734    0.0000 C   0  0  0  0  0  0  0  0  0  0  0  0
    7.2849   -1.3576    0.0000 C   0  0  0  0  0  0  0  0  0  0  0  0
    8.0022   -0.9501    0.0000 C   0  0  0  0  0  0  0  0  0  0  0  0
    6.5560   -0.8893    0.0000 C   0  0  0  0  0  0  0  0  0  0  0  0
    6.1191   -1.5092    0.0000 C   0  0  0  0  0  0  0  0  0  0  0  0
    5.6147   -0.8563    0.0000 C   0  0  0  0  0  0  0  0  0  0  0  0
    5.3020   -1.3950    0.0000 C   0  0  0  0  0  0  0  0  0  0  0  0
    3.6302   -1.7063    0.0000 C   0  0  2  0  0  0  0  0  0  0  0  0
    4.1431   -2.3526    0.0000 O   0  0  0  0  0  0  0  0  0  0  0  0
    3.8398   -3.1198    0.0000 C   0  0  0  0  0  0  0  0  0  0  0  0
    4.3527   -3.7661    0.0000 C   0  0  0  0  0  0  0  0  0  0  0  0
    3.0238   -3.2408    0.0000 O   0  0  0  0  0  0  0  0  0  0  0  0
    3.1388   -2.3690    0.0000 C   0  0  0  0  0  0  0  0  0  0  0  0
    2.4761   -1.8775    0.0000 O   0  0  0  0  0  0  0  0  0  0  0  0
    2.9676   -1.2149    0.0000 C   0  0  2  0  0  0  0  0  0  0  0  0
    3.0620   -0.3953    0.0000 C   0  0  1  0  0  0  0  0  0  0  0  0
    2.3993    0.0962    0.0000 O   0  0  0  0  0  0  0  0  0  0  0  0
    3.8189   -0.0672    0.0000 C   0  0  2  0  0  0  0  0  0  0  0  0
    3.9132    0.7524    0.0000 O   0  0  0  0  0  0  0  0  0  0  0  0
  1  2  1  0  0  0  0
  2  3  2  0  0  0  0
  2  4  1  0  0  0  0
  5  4  1  6  0  0  0
  5  6  1  0  0  0  0
  6  7  2  0  0  0  0
  8  6  1  0  0  0  0
  8  9  1  6  0  0  0
 10  8  1  0  0  0  0
 10 11  1  0  0  0  0
 11 12  1  1  0  0  0
 12 13  1  0  0  0  0
 13 14  2  0  0  0  0
 13 15  1  0  0  0  0
 15 16  4  0  0  0  0
 16 17  4  0  0  0  0
 17 18  4  0  0  0  0
 18 19  4  0  0  0  0
 19 20  4  0  0  0  0
 15 20  4  0  0  0  0
 11 21  1  0  0  0  0
 21 22  1  6  0  0  0
 21 23  1  0  0  0  0
 24 23  1  0  0  0  0
 24 25  1  1  0  0  0
 25 26  1  0  0  0  0
 26 27  2  0  0  0  0
 28 26  1  0  0  0  0
 28 29  1  1  0  0  0
 28 30  1  0  0  0  0
 30 31  1  6  0  0  0
 31 32  1  0  0  0  0
 32 33  2  0  0  0  0
 32 34  1  0  0  0  0
 34 35  4  0  0  0  0
 35 36  4  0  0  0  0
 36 37  4  0  0  0  0
 37 38  4  0  0  0  0
 38 39  4  0  0  0  0
 34 39  4  0  0  0  0
 30 40  1  0  0  0  0
 40 41  4  0  0  0  0
 41 42  4  0  0  0  0
 42 43  4  0  0  0  0
 43 44  4  0  0  0  0
 44 45  4  0  0  0  0
 40 45  4  0  0  0  0
 24 46  1  0  0  0  0
 46 47  1  0  0  0  0
 46 48  2  0  0  0  0
  5 48  1  0  0  0  0
 48 49  1  0  0  0  0
 21 49  1  0  0  0  0
 49 50  1  0  0  0  0
 49 51  1  0  0  0  0
 10 52  1  6  0  0  0
 52 53  1  1  0  0  0
 53 54  1  0  0  0  0
 54 55  1  0  0  0  0
 54 56  2  0  0  0  0
 52 57  1  0  0  0  0
 57 58  1  0  0  0  0
 59 58  1  6  0  0  0
 52 59  1  0  0  0  0
 59 60  1  0  0  0  0
 60 61  1  1  0  0  0
 62 60  1  0  0  0  0
  8 62  1  0  0  0  0
 62 63  1  6  0  0  0
M  END
>  <CdId>
326

>  <Mol Weight>
869.917

>  <Formula>
C47H51NO15

>  <Molecule ChEMBL ID>
CHEMBL3911312

>  <Molecule Max Phase>
None

>  <Molecular Weight>
869.92

>  <#RO5 Violations>
2

>  <AlogP>
2.71

>  <Compound Key>
BDBM224812

>  <Standard Type>
IC50

>  <Standard Relation>
'='

>  <Standard Value>
21600.0

>  <Standard Units>
nM

$$$$

  Mrv2114 03112311372D          

 34 38  0  0  0  0            999 V2000
    6.1625   -2.2156    0.0000 O   0  0  0  0  0  0  0  0  0  0  0  0
    6.8769   -2.6281    0.0000 C   0  0  0  0  0  0  0  0  0  0  0  0
    7.5914   -2.2156    0.0000 O   0  0  0  0  0  0  0  0  0  0  0  0
    6.8769   -3.4531    0.0000 C   0  0  0  0  0  0  0  0  0  0  0  0
    7.4603   -4.0365    0.0000 C   0  0  0  0  0  0  0  0  0  0  0  0
    6.8769   -4.6198    0.0000 N   0  0  0  0  0  0  0  0  0  0  0  0
    6.8769   -5.4448    0.0000 C   0  0  0  0  0  0  0  0  0  0  0  0
    6.1625   -5.8573    0.0000 C   0  0  0  0  0  0  0  0  0  0  0  0
    6.1625   -6.6823    0.0000 C   0  0  0  0  0  0  0  0  0  0  0  0
    5.4480   -7.0948    0.0000 C   0  0  0  0  0  0  0  0  0  0  0  0
    4.7335   -6.6823    0.0000 C   0  0  0  0  0  0  0  0  0  0  0  0
    4.0191   -7.0948    0.0000 C   0  0  0  0  0  0  0  0  0  0  0  0
    3.9328   -7.9153    0.0000 N   0  0  0  0  0  0  0  0  0  0  0  0
    3.1258   -8.0869    0.0000 O   0  0  0  0  0  0  0  0  0  0  0  0
    2.7133   -7.3724    0.0000 C   0  0  0  0  0  0  0  0  0  0  0  0
    1.8929   -7.2861    0.0000 C   0  0  0  0  0  0  0  0  0  0  0  0
    1.3408   -7.8992    0.0000 O   0  0  0  0  0  0  0  0  0  0  0  0
    0.5872   -7.5637    0.0000 N   0  0  0  0  0  0  0  0  0  0  0  0
    0.6734   -6.7432    0.0000 C   0  0  0  0  0  0  0  0  0  0  0  0
    0.0603   -6.1912    0.0000 C   0  0  0  0  0  0  0  0  0  0  0  0
   -0.7243   -6.4461    0.0000 C   0  0  0  0  0  0  0  0  0  0  0  0
   -1.3374   -5.8941    0.0000 C   0  0  0  0  0  0  0  0  0  0  0  0
   -1.1659   -5.0871    0.0000 C   0  0  0  0  0  0  0  0  0  0  0  0
   -0.3813   -4.8322    0.0000 C   0  0  0  0  0  0  0  0  0  0  0  0
    0.2318   -5.3842    0.0000 N   0  0  0  0  0  0  0  0  0  0  0  0
    1.4804   -6.5717    0.0000 C   0  0  0  0  0  0  0  0  0  0  0  0
    1.8159   -5.8180    0.0000 C   0  0  0  0  0  0  0  0  0  0  0  0
    2.1515   -5.0643    0.0000 F   0  0  0  0  0  0  0  0  0  0  0  0
    2.5696   -6.1536    0.0000 F   0  0  0  0  0  0  0  0  0  0  0  0
    1.0622   -5.4824    0.0000 F   0  0  0  0  0  0  0  0  0  0  0  0
    3.2654   -6.7593    0.0000 N   0  0  0  0  0  0  0  0  0  0  0  0
    4.7335   -5.8573    0.0000 C   0  0  0  0  0  0  0  0  0  0  0  0
    5.4480   -5.4448    0.0000 C   0  0  0  0  0  0  0  0  0  0  0  0
    6.2936   -4.0365    0.0000 C   0  0  0  0  0  0  0  0  0  0  0  0
  1  2  2  0  0  0  0
  2  3  1  0  0  0  0
  2  4  1  0  0  0  0
  4  5  1  0  0  0  0
  5  6  1  0  0  0  0
  6  7  1  0  0  0  0
  7  8  1  0  0  0  0
  8  9  4  0  0  0  0
  9 10  4  0  0  0  0
 10 11  4  0  0  0  0
 11 12  1  0  0  0  0
 12 13  4  0  0  0  0
 13 14  4  0  0  0  0
 14 15  4  0  0  0  0
 15 16  1  0  0  0  0
 16 17  4  0  0  0  0
 17 18  4  0  0  0  0
 18 19  4  0  0  0  0
 19 20  1  0  0  0  0
 20 21  4  0  0  0  0
 21 22  4  0  0  0  0
 22 23  4  0  0  0  0
 23 24  4  0  0  0  0
 24 25  4  0  0  0  0
 20 25  4  0  0  0  0
 19 26  4  0  0  0  0
 16 26  4  0  0  0  0
 26 27  1  0  0  0  0
 27 28  1  0  0  0  0
 27 29  1  0  0  0  0
 27 30  1  0  0  0  0
 15 31  4  0  0  0  0
 12 31  4  0  0  0  0
 11 32  4  0  0  0  0
 32 33  4  0  0  0  0
  8 33  4  0  0  0  0
  6 34  1  0  0  0  0
  4 34  1  0  0  0  0
M  END
>  <CdId>
327

>  <Mol Weight>
471.396

>  <Formula>
C22H16F3N5O4

>  <Molecule ChEMBL ID>
CHEMBL3794145

>  <Molecule Max Phase>
None

>  <Molecular Weight>
471.4

>  <#RO5 Violations>
0

>  <AlogP>
3.99

>  <Compound Key>
5b

>  <Standard Type>
IC50

>  <Standard Relation>
'>'

>  <Standard Value>
40000.0

>  <Standard Units>
nM

$$$$

  Mrv2114 03112311372D          

 26 28  0  0  0  0            999 V2000
    0.7145   -2.8875    0.0000 O   0  0  0  0  0  0  0  0  0  0  0  0
    0.7145   -2.0625    0.0000 C   0  0  0  0  0  0  0  0  0  0  0  0
    1.4289   -1.6500    0.0000 C   0  0  0  0  0  0  0  0  0  0  0  0
    2.1434   -2.0625    0.0000 C   0  0  0  0  0  0  0  0  0  0  0  0
    2.8579   -1.6500    0.0000 C   0  0  0  0  0  0  0  0  0  0  0  0
    3.5724   -2.0625    0.0000 N   0  0  0  0  0  0  0  0  0  0  0  0
    4.2868   -1.6500    0.0000 C   0  0  0  0  0  0  0  0  0  0  0  0
    5.0013   -2.0625    0.0000 C   0  0  0  0  0  0  0  0  0  0  0  0
    5.0013   -2.8875    0.0000 C   0  0  0  0  0  0  0  0  0  0  0  0
    5.8138   -2.7442    0.0000 O   0  0  0  0  0  0  0  0  0  0  0  0
    5.2835   -3.6627    0.0000 C   0  0  0  0  0  0  0  0  0  0  0  0
    6.0959   -3.8060    0.0000 C   0  0  0  0  0  0  0  0  0  0  0  0
    6.3781   -4.5813    0.0000 C   0  0  0  0  0  0  0  0  0  0  0  0
    5.8478   -5.2132    0.0000 C   0  0  0  0  0  0  0  0  0  0  0  0
    6.1300   -5.9885    0.0000 Cl  0  0  0  0  0  0  0  0  0  0  0  0
    5.0353   -5.0700    0.0000 C   0  0  0  0  0  0  0  0  0  0  0  0
    4.7532   -4.2947    0.0000 C   0  0  0  0  0  0  0  0  0  0  0  0
    4.2868   -3.3000    0.0000 C   0  0  0  0  0  0  0  0  0  0  0  0
    3.5724   -2.8875    0.0000 C   0  0  0  0  0  0  0  0  0  0  0  0
    0.0000   -1.6500    0.0000 C   0  0  0  0  0  0  0  0  0  0  0  0
   -0.7145   -2.0625    0.0000 C   0  0  0  0  0  0  0  0  0  0  0  0
   -1.4289   -1.6500    0.0000 C   0  0  0  0  0  0  0  0  0  0  0  0
   -1.4289   -0.8250    0.0000 C   0  0  0  0  0  0  0  0  0  0  0  0
   -2.1434   -0.4125    0.0000 F   0  0  0  0  0  0  0  0  0  0  0  0
   -0.7145   -0.4125    0.0000 C   0  0  0  0  0  0  0  0  0  0  0  0
    0.0000   -0.8250    0.0000 C   0  0  0  0  0  0  0  0  0  0  0  0
  1  2  2  0  0  0  0
  2  3  1  0  0  0  0
  3  4  1  0  0  0  0
  4  5  1  0  0  0  0
  5  6  1  0  0  0  0
  6  7  1  0  0  0  0
  7  8  1  0  0  0  0
  8  9  1  0  0  0  0
  9 10  1  0  0  0  0
  9 11  1  0  0  0  0
 11 12  4  0  0  0  0
 12 13  4  0  0  0  0
 13 14  4  0  0  0  0
 14 15  1  0  0  0  0
 14 16  4  0  0  0  0
 16 17  4  0  0  0  0
 11 17  4  0  0  0  0
  9 18  1  0  0  0  0
 18 19  1  0  0  0  0
  6 19  1  0  0  0  0
  2 20  1  0  0  0  0
 20 21  4  0  0  0  0
 21 22  4  0  0  0  0
 22 23  4  0  0  0  0
 23 24  1  0  0  0  0
 23 25  4  0  0  0  0
 25 26  4  0  0  0  0
 20 26  4  0  0  0  0
M  END
>  <CdId>
328

>  <Mol Weight>
375.87

>  <Formula>
C21H23ClFNO2

>  <Molecule ChEMBL ID>
CHEMBL54

>  <Molecule Name>
HALOPERIDOL

>  <Molecule Max Phase>
4

>  <Molecular Weight>
375.87

>  <#RO5 Violations>
0

>  <AlogP>
4.43

>  <Compound Key>
Haloperidol

>  <Standard Type>
IC50

>  <Standard Relation>
'>'

>  <Standard Value>
30000.0

>  <Standard Units>
nM

$$$$

  Mrv2114 03112311372D          

 26 28  0  0  1  0            999 V2000
    2.1434   -2.8875    0.0000 O   0  0  0  0  0  0  0  0  0  0  0  0
    1.4289   -2.4750    0.0000 C   0  0  1  0  0  0  0  0  0  0  0  0
    1.4289   -1.6500    0.0000 C   0  0  0  0  0  0  0  0  0  0  0  0
    0.7145   -1.2375    0.0000 C   0  0  0  0  0  0  0  0  0  0  0  0
    0.7145   -0.4125    0.0000 C   0  0  0  0  0  0  0  0  0  0  0  0
    0.0000    0.0000    0.0000 C   0  0  0  0  0  0  0  0  0  0  0  0
   -0.7145    0.4125    0.0000 F   0  0  0  0  0  0  0  0  0  0  0  0
    0.4125    0.7145    0.0000 F   0  0  0  0  0  0  0  0  0  0  0  0
   -0.4125   -0.7145    0.0000 F   0  0  0  0  0  0  0  0  0  0  0  0
    1.4289    0.0000    0.0000 N   0  0  0  0  0  0  0  0  0  0  0  0
    2.1434   -0.4125    0.0000 C   0  0  0  0  0  0  0  0  0  0  0  0
    2.8579    0.0000    0.0000 C   0  0  0  0  0  0  0  0  0  0  0  0
    2.8579    0.8250    0.0000 C   0  0  0  0  0  0  0  0  0  0  0  0
    2.8579    1.6500    0.0000 F   0  0  0  0  0  0  0  0  0  0  0  0
    2.0329    0.8250    0.0000 F   0  0  0  0  0  0  0  0  0  0  0  0
    3.6829    0.8250    0.0000 F   0  0  0  0  0  0  0  0  0  0  0  0
    3.5724   -0.4125    0.0000 C   0  0  0  0  0  0  0  0  0  0  0  0
    3.5724   -1.2375    0.0000 C   0  0  0  0  0  0  0  0  0  0  0  0
    2.8579   -1.6500    0.0000 C   0  0  0  0  0  0  0  0  0  0  0  0
    2.1434   -1.2375    0.0000 C   0  0  0  0  0  0  0  0  0  0  0  0
    0.7145   -2.8875    0.0000 C   0  0  1  0  0  0  0  0  0  0  0  0
    0.7145   -3.7125    0.0000 C   0  0  0  0  0  0  0  0  0  0  0  0
    0.0000   -4.1250    0.0000 C   0  0  0  0  0  0  0  0  0  0  0  0
   -0.7145   -3.7125    0.0000 C   0  0  0  0  0  0  0  0  0  0  0  0
   -0.7145   -2.8875    0.0000 C   0  0  0  0  0  0  0  0  0  0  0  0
    0.0000   -2.4750    0.0000 N   0  0  0  0  0  0  0  0  0  0  0  0
  2  1  1  6  0  0  0
  2  3  1  0  0  0  0
  3  4  4  0  0  0  0
  4  5  4  0  0  0  0
  5  6  1  0  0  0  0
  6  7  1  0  0  0  0
  6  8  1  0  0  0  0
  6  9  1  0  0  0  0
  5 10  4  0  0  0  0
 10 11  4  0  0  0  0
 11 12  4  0  0  0  0
 12 13  1  0  0  0  0
 13 14  1  0  0  0  0
 13 15  1  0  0  0  0
 13 16  1  0  0  0  0
 12 17  4  0  0  0  0
 17 18  4  0  0  0  0
 18 19  4  0  0  0  0
 19 20  4  0  0  0  0
  3 20  4  0  0  0  0
 11 20  4  0  0  0  0
  2 21  1  0  0  0  0
 21 22  1  0  0  0  0
 22 23  1  0  0  0  0
 23 24  1  0  0  0  0
 24 25  1  0  0  0  0
 25 26  1  0  0  0  0
 21 26  1  1  0  0  0
M  END
>  <CdId>
329

>  <Mol Weight>
378.318

>  <Formula>
C17H16F6N2O

>  <Molecule ChEMBL ID>
CHEMBL172

>  <Molecule Name>
(S,R)-MEFLOQUINE

>  <Molecule Max Phase>
None

>  <Molecular Weight>
378.32

>  <#RO5 Violations>
0

>  <AlogP>
4.45

>  <Compound Key>
Mefloquine

>  <Standard Type>
IC50

>  <Standard Relation>
'>'

>  <Standard Value>
30000.0

>  <Standard Units>
nM

$$$$

  Mrv2114 03112311372D          

 33 36  0  0  0  0            999 V2000
   -0.1105   -0.4125    0.0000 C   0  0  0  0  0  0  0  0  0  0  0  0
    0.7145   -0.4125    0.0000 C   0  0  0  0  0  0  0  0  0  0  0  0
    1.5395   -0.4125    0.0000 O   0  0  0  0  0  0  0  0  0  0  0  0
    0.7145    0.4125    0.0000 C   0  0  0  0  0  0  0  0  0  0  0  0
    0.0000    0.8250    0.0000 C   0  0  0  0  0  0  0  0  0  0  0  0
    0.0000    1.6500    0.0000 C   0  0  0  0  0  0  0  0  0  0  0  0
    0.7145    2.0625    0.0000 C   0  0  0  0  0  0  0  0  0  0  0  0
    1.4289    1.6500    0.0000 C   0  0  0  0  0  0  0  0  0  0  0  0
    2.1434    2.0625    0.0000 C   0  0  0  0  0  0  0  0  0  0  0  0
    2.8579    2.4750    0.0000 F   0  0  0  0  0  0  0  0  0  0  0  0
    1.7309    2.7770    0.0000 F   0  0  0  0  0  0  0  0  0  0  0  0
    2.5559    1.3480    0.0000 F   0  0  0  0  0  0  0  0  0  0  0  0
    1.4289    0.8250    0.0000 C   0  0  0  0  0  0  0  0  0  0  0  0
    0.7145   -1.2375    0.0000 C   0  0  0  0  0  0  0  0  0  0  0  0
    1.3819   -1.7224    0.0000 N   0  0  0  0  0  0  0  0  0  0  0  0
    1.1270   -2.5070    0.0000 C   0  0  0  0  0  0  0  0  0  0  0  0
    1.6119   -3.1745    0.0000 N   0  0  0  0  0  0  0  0  0  0  0  0
    2.4324   -3.0882    0.0000 C   0  0  0  0  0  0  0  0  0  0  0  0
    2.9173   -3.7557    0.0000 C   0  0  0  0  0  0  0  0  0  0  0  0
    2.5817   -4.5094    0.0000 C   0  0  0  0  0  0  0  0  0  0  0  0
    3.0667   -5.1768    0.0000 N   0  0  0  0  0  0  0  0  0  0  0  0
    3.8871   -5.0906    0.0000 C   0  0  0  0  0  0  0  0  0  0  0  0
    4.2227   -4.3369    0.0000 O   0  0  0  0  0  0  0  0  0  0  0  0
    4.3721   -5.7580    0.0000 C   0  0  0  0  0  0  0  0  0  0  0  0
    5.1971   -5.7580    0.0000 C   0  0  0  0  0  0  0  0  0  0  0  0
    5.4520   -6.5426    0.0000 S   0  0  0  0  0  0  0  0  0  0  0  0
    4.7846   -7.0275    0.0000 C   0  0  0  0  0  0  0  0  0  0  0  0
    4.1171   -6.5426    0.0000 N   0  0  0  0  0  0  0  0  0  0  0  0
    1.7613   -4.5956    0.0000 C   0  0  0  0  0  0  0  0  0  0  0  0
    1.2763   -3.9282    0.0000 C   0  0  0  0  0  0  0  0  0  0  0  0
    0.4559   -4.0144    0.0000 O   0  0  0  0  0  0  0  0  0  0  0  0
    0.3020   -2.5070    0.0000 C   0  0  0  0  0  0  0  0  0  0  0  0
    0.0470   -1.7224    0.0000 N   0  0  0  0  0  0  0  0  0  0  0  0
  1  2  1  0  0  0  0
  2  3  1  0  0  0  0
  2  4  1  0  0  0  0
  4  5  4  0  0  0  0
  5  6  4  0  0  0  0
  6  7  4  0  0  0  0
  7  8  4  0  0  0  0
  8  9  1  0  0  0  0
  9 10  1  0  0  0  0
  9 11  1  0  0  0  0
  9 12  1  0  0  0  0
  8 13  4  0  0  0  0
  4 13  4  0  0  0  0
  2 14  1  0  0  0  0
 14 15  4  0  0  0  0
 15 16  4  0  0  0  0
 16 17  1  0  0  0  0
 17 18  4  0  0  0  0
 18 19  4  0  0  0  0
 19 20  4  0  0  0  0
 20 21  1  0  0  0  0
 21 22  1  0  0  0  0
 22 23  2  0  0  0  0
 22 24  1  0  0  0  0
 24 25  4  0  0  0  0
 25 26  4  0  0  0  0
 26 27  4  0  0  0  0
 27 28  4  0  0  0  0
 24 28  4  0  0  0  0
 20 29  4  0  0  0  0
 29 30  4  0  0  0  0
 17 30  4  0  0  0  0
 30 31  2  0  0  0  0
 16 32  4  0  0  0  0
 32 33  4  0  0  0  0
 14 33  4  0  0  0  0
M  STY  1   1 DAT
M  SAL   1  1  33
M  SDT   1 MRV_IMPLICIT_H                                        
M  SDD   1     0.0000    0.0000    DR    ALL  0       0  
M  SED   1 IMPL_H1
M  END
>  <CdId>
330

>  <Mol Weight>
475.45

>  <Formula>
C21H16F3N5O3S

>  <Molecule ChEMBL ID>
CHEMBL3808805

>  <Molecule Max Phase>
None

>  <Molecular Weight>
475.45

>  <#RO5 Violations>
0

>  <AlogP>
3.54

>  <Compound Key>
24

>  <Standard Type>
IC50

>  <Standard Relation>
'='

>  <Standard Value>
4700.0

>  <Standard Units>
nM

$$$$

  Mrv2114 03112311372D          

 39 43  0  0  1  0            999 V2000
   -0.7076   -2.3453    0.0000 C   0  0  0  0  0  0  0  0  0  0  0  0
   -1.2596   -2.9584    0.0000 C   0  0  0  0  0  0  0  0  0  0  0  0
   -1.0047   -3.7430    0.0000 N   0  0  0  0  0  0  0  0  0  0  0  0
   -1.4896   -4.4104    0.0000 N   0  0  0  0  0  0  0  0  0  0  0  0
   -1.0047   -5.0779    0.0000 N   0  0  0  0  0  0  0  0  0  0  0  0
   -0.2201   -4.8229    0.0000 C   0  0  0  0  0  0  0  0  0  0  0  0
    0.4944   -5.2354    0.0000 C   0  0  0  0  0  0  0  0  0  0  0  0
    0.4944   -6.0604    0.0000 C   0  0  0  0  0  0  0  0  0  0  0  0
    1.2089   -4.8229    0.0000 C   0  0  0  0  0  0  0  0  0  0  0  0
    1.9233   -5.2354    0.0000 C   0  0  1  0  0  0  0  0  0  0  0  0
    2.6378   -4.8229    0.0000 C   0  0  0  0  0  0  0  0  0  0  0  0
    2.6378   -3.9979    0.0000 C   0  0  0  0  0  0  0  0  0  0  0  0
    1.9233   -3.5854    0.0000 O   0  0  0  0  0  0  0  0  0  0  0  0
    3.3523   -3.5854    0.0000 O   0  0  0  0  0  0  0  0  0  0  0  0
    1.9233   -6.0604    0.0000 C   0  0  0  0  0  0  0  0  0  0  0  0
    1.2089   -6.4729    0.0000 C   0  0  0  0  0  0  0  0  0  0  0  0
    1.2089   -7.2979    0.0000 C   0  0  0  0  0  0  0  0  0  0  0  0
    1.9233   -7.7104    0.0000 C   0  0  0  0  0  0  0  0  0  0  0  0
    2.6378   -7.2979    0.0000 C   0  0  0  0  0  0  0  0  0  0  0  0
    2.6378   -6.4729    0.0000 C   0  0  0  0  0  0  0  0  0  0  0  0
    3.3523   -7.7104    0.0000 C   0  0  0  0  0  0  0  0  0  0  0  0
    3.3523   -8.5354    0.0000 N   0  0  0  0  0  0  0  0  0  0  0  0
    4.0668   -8.9479    0.0000 C   0  0  0  0  0  0  0  0  0  0  0  0
    4.7812   -8.5354    0.0000 O   0  0  0  0  0  0  0  0  0  0  0  0
    4.0668   -9.7729    0.0000 C   0  0  0  0  0  0  0  0  0  0  0  0
    4.7812  -10.1854    0.0000 C   0  0  0  0  0  0  0  0  0  0  0  0
    5.4957   -9.7729    0.0000 C   0  0  0  0  0  0  0  0  0  0  0  0
    4.7812  -11.0104    0.0000 C   0  0  0  0  0  0  0  0  0  0  0  0
    5.4957  -11.4229    0.0000 C   0  0  0  0  0  0  0  0  0  0  0  0
    4.0668  -11.4229    0.0000 C   0  0  0  0  0  0  0  0  0  0  0  0
    3.3523  -11.0104    0.0000 C   0  0  0  0  0  0  0  0  0  0  0  0
    2.6378  -11.4229    0.0000 C   0  0  0  0  0  0  0  0  0  0  0  0
    3.3523  -10.1854    0.0000 C   0  0  0  0  0  0  0  0  0  0  0  0
    2.6378   -9.7729    0.0000 C   0  0  0  0  0  0  0  0  0  0  0  0
    2.6378   -8.9479    0.0000 C   0  0  0  0  0  0  0  0  0  0  0  0
    1.9233   -8.5354    0.0000 C   0  0  0  0  0  0  0  0  0  0  0  0
    1.2089   -3.9979    0.0000 C   0  0  0  0  0  0  0  0  0  0  0  0
    0.4944   -3.5854    0.0000 C   0  0  0  0  0  0  0  0  0  0  0  0
   -0.2201   -3.9979    0.0000 C   0  0  0  0  0  0  0  0  0  0  0  0
  1  2  1  0  0  0  0
  2  3  1  0  0  0  0
  3  4  4  0  0  0  0
  4  5  4  0  0  0  0
  5  6  4  0  0  0  0
  6  7  4  0  0  0  0
  7  8  1  0  0  0  0
  7  9  4  0  0  0  0
 10  9  1  0  0  0  0
 10 11  1  1  0  0  0
 11 12  1  0  0  0  0
 12 13  2  0  0  0  0
 12 14  1  0  0  0  0
 10 15  1  0  0  0  0
 15 16  4  0  0  0  0
 16 17  4  0  0  0  0
 17 18  4  0  0  0  0
 18 19  4  0  0  0  0
 19 20  4  0  0  0  0
 15 20  4  0  0  0  0
 19 21  1  0  0  0  0
 21 22  1  0  0  0  0
 22 23  1  0  0  0  0
 23 24  2  0  0  0  0
 23 25  1  0  0  0  0
 25 26  4  0  0  0  0
 26 27  1  0  0  0  0
 26 28  4  0  0  0  0
 28 29  1  0  0  0  0
 28 30  4  0  0  0  0
 30 31  4  0  0  0  0
 31 32  1  0  0  0  0
 31 33  4  0  0  0  0
 25 33  4  0  0  0  0
 33 34  1  0  0  0  0
 22 35  1  0  0  0  0
 35 36  1  0  0  0  0
 18 36  1  0  0  0  0
  9 37  4  0  0  0  0
 37 38  4  0  0  0  0
 38 39  4  0  0  0  0
  6 39  4  0  0  0  0
  3 39  4  0  0  0  0
M  END
>  <CdId>
331

>  <Mol Weight>
524.665

>  <Formula>
C32H36N4O3

>  <Molecule ChEMBL ID>
CHEMBL4643134

>  <Molecule Max Phase>
None

>  <Molecular Weight>
524.67

>  <#RO5 Violations>
2

>  <AlogP>
5.8

>  <Compound Key>
14

>  <Standard Type>
IC50

>  <Standard Relation>
'>'

>  <Standard Value>
10000.0

>  <Standard Units>
nM

$$$$

  Mrv2114 03112311372D          

 27 30  0  0  0  0            999 V2000
    7.6442    0.3094    0.0000 O   0  0  0  0  0  0  0  0  0  0  0  0
    7.2542    1.0365    0.0000 C   0  0  0  0  0  0  0  0  0  0  0  0
    6.4296    1.0622    0.0000 C   0  0  0  0  0  0  0  0  0  0  0  0
    5.9950    0.3610    0.0000 C   0  0  0  0  0  0  0  0  0  0  0  0
    5.1704    0.3867    0.0000 C   0  0  0  0  0  0  0  0  0  0  0  0
    4.7804    1.1137    0.0000 C   0  0  0  0  0  0  0  0  0  0  0  0
    3.9558    1.1395    0.0000 C   0  0  0  0  0  0  0  0  0  0  0  0
    3.5212    0.4383    0.0000 C   0  0  0  0  0  0  0  0  0  0  0  0
    3.9112   -0.2887    0.0000 C   0  0  0  0  0  0  0  0  0  0  0  0
    3.4766   -0.9900    0.0000 C   0  0  0  0  0  0  0  0  0  0  0  0
    2.6520   -0.9642    0.0000 C   0  0  0  0  0  0  0  0  0  0  0  0
    2.2620   -0.2372    0.0000 C   0  0  0  0  0  0  0  0  0  0  0  0
    1.4608   -0.0406    0.0000 N   0  0  0  0  0  0  0  0  0  0  0  0
    1.4002    0.7822    0.0000 N   0  0  0  0  0  0  0  0  0  0  0  0
    2.1640    1.0941    0.0000 C   0  0  0  0  0  0  0  0  0  0  0  0
    2.6966    0.4640    0.0000 C   0  0  0  0  0  0  0  0  0  0  0  0
    4.7358   -0.3145    0.0000 C   0  0  0  0  0  0  0  0  0  0  0  0
    7.6888    1.7377    0.0000 N   0  0  0  0  0  0  0  0  0  0  0  0
    8.5134    1.7119    0.0000 C   0  0  0  0  0  0  0  0  0  0  0  0
    8.9034    0.9849    0.0000 C   0  0  0  0  0  0  0  0  0  0  0  0
    9.7280    0.9592    0.0000 C   0  0  0  0  0  0  0  0  0  0  0  0
   10.1626    1.6604    0.0000 C   0  0  0  0  0  0  0  0  0  0  0  0
    9.7726    2.3874    0.0000 C   0  0  0  0  0  0  0  0  0  0  0  0
    8.9480    2.4132    0.0000 C   0  0  0  0  0  0  0  0  0  0  0  0
    8.5580    3.1402    0.0000 C   0  0  0  0  0  0  0  0  0  0  0  0
    7.7334    3.1659    0.0000 O   0  0  0  0  0  0  0  0  0  0  0  0
    8.9926    3.8414    0.0000 O   0  0  0  0  0  0  0  0  0  0  0  0
  1  2  2  0  0  0  0
  2  3  1  0  0  0  0
  3  4  1  0  0  0  0
  4  5  1  0  0  0  0
  5  6  4  0  0  0  0
  6  7  4  0  0  0  0
  7  8  4  0  0  0  0
  8  9  4  0  0  0  0
  9 10  4  0  0  0  0
 10 11  4  0  0  0  0
 11 12  4  0  0  0  0
 12 13  4  0  0  0  0
 13 14  4  0  0  0  0
 14 15  4  0  0  0  0
 15 16  4  0  0  0  0
 12 16  4  0  0  0  0
  8 16  4  0  0  0  0
  9 17  4  0  0  0  0
  5 17  4  0  0  0  0
  2 18  1  0  0  0  0
 18 19  1  0  0  0  0
 19 20  4  0  0  0  0
 20 21  4  0  0  0  0
 21 22  4  0  0  0  0
 22 23  4  0  0  0  0
 23 24  4  0  0  0  0
 19 24  4  0  0  0  0
 24 25  1  0  0  0  0
 25 26  2  0  0  0  0
 25 27  1  0  0  0  0
M  STY  1   1 DAT
M  SAL   1  1  13
M  SDT   1 MRV_IMPLICIT_H                                        
M  SDD   1     0.0000    0.0000    DR    ALL  0       0  
M  SED   1 IMPL_H1
M  END
>  <CdId>
332

>  <Mol Weight>
359.385

>  <Formula>
C21H17N3O3

>  <Molecule ChEMBL ID>
CHEMBL485185

>  <Molecule Max Phase>
None

>  <Molecular Weight>
359.39

>  <#RO5 Violations>
0

>  <AlogP>
3.99

>  <Compound Key>
2p

>  <Standard Type>
IC50

$$$$

  Mrv2114 03112311372D          

 29 32  0  0  0  0            999 V2000
    5.4896   -1.6384    0.0000 O   0  0  0  0  0  0  0  0  0  0  0  0
    5.6358   -0.8265    0.0000 C   0  0  0  0  0  0  0  0  0  0  0  0
    5.0058   -0.2939    0.0000 C   0  0  0  0  0  0  0  0  0  0  0  0
    4.2295   -0.5732    0.0000 C   0  0  0  0  0  0  0  0  0  0  0  0
    3.5995   -0.0406    0.0000 C   0  0  0  0  0  0  0  0  0  0  0  0
    3.6601    0.7822    0.0000 N   0  0  0  0  0  0  0  0  0  0  0  0
    2.8963    1.0941    0.0000 O   0  0  0  0  0  0  0  0  0  0  0  0
    2.3637    0.4640    0.0000 C   0  0  0  0  0  0  0  0  0  0  0  0
    2.7983   -0.2372    0.0000 C   0  0  0  0  0  0  0  0  0  0  0  0
    2.4083   -0.9642    0.0000 C   0  0  0  0  0  0  0  0  0  0  0  0
    1.5837   -0.9900    0.0000 C   0  0  0  0  0  0  0  0  0  0  0  0
    1.1491   -0.2887    0.0000 C   0  0  0  0  0  0  0  0  0  0  0  0
    0.3245   -0.3145    0.0000 C   0  0  0  0  0  0  0  0  0  0  0  0
   -0.0655   -1.0415    0.0000 F   0  0  0  0  0  0  0  0  0  0  0  0
   -0.1101    0.3867    0.0000 C   0  0  0  0  0  0  0  0  0  0  0  0
   -0.9347    0.3610    0.0000 O   0  0  0  0  0  0  0  0  0  0  0  0
    0.2799    1.1137    0.0000 C   0  0  0  0  0  0  0  0  0  0  0  0
    1.1045    1.1395    0.0000 C   0  0  0  0  0  0  0  0  0  0  0  0
    1.5391    0.4383    0.0000 C   0  0  0  0  0  0  0  0  0  0  0  0
    6.4121   -0.5472    0.0000 N   0  0  0  0  0  0  0  0  0  0  0  0
    7.0422   -1.0798    0.0000 C   0  0  0  0  0  0  0  0  0  0  0  0
    7.8184   -0.8005    0.0000 C   0  0  0  0  0  0  0  0  0  0  0  0
    7.9647    0.0115    0.0000 C   0  0  0  0  0  0  0  0  0  0  0  0
    7.3346    0.5441    0.0000 O   0  0  0  0  0  0  0  0  0  0  0  0
    8.7410    0.2908    0.0000 O   0  0  0  0  0  0  0  0  0  0  0  0
    8.4485   -1.3331    0.0000 C   0  0  0  0  0  0  0  0  0  0  0  0
    8.3022   -2.1450    0.0000 C   0  0  0  0  0  0  0  0  0  0  0  0
    7.5259   -2.4243    0.0000 C   0  0  0  0  0  0  0  0  0  0  0  0
    6.8959   -1.8917    0.0000 C   0  0  0  0  0  0  0  0  0  0  0  0
  1  2  2  0  0  0  0
  2  3  1  0  0  0  0
  3  4  1  0  0  0  0
  4  5  1  0  0  0  0
  5  6  4  0  0  0  0
  6  7  4  0  0  0  0
  7  8  4  0  0  0  0
  8  9  4  0  0  0  0
  5  9  4  0  0  0  0
  9 10  4  0  0  0  0
 10 11  4  0  0  0  0
 11 12  4  0  0  0  0
 12 13  4  0  0  0  0
 13 14  1  0  0  0  0
 13 15  4  0  0  0  0
 15 16  1  0  0  0  0
 15 17  4  0  0  0  0
 17 18  4  0  0  0  0
 18 19  4  0  0  0  0
 12 19  4  0  0  0  0
  8 19  4  0  0  0  0
  2 20  1  0  0  0  0
 20 21  1  0  0  0  0
 21 22  2  0  0  0  0
 22 23  1  0  0  0  0
 23 24  2  0  0  0  0
 23 25  1  0  0  0  0
 22 26  1  0  0  0  0
 26 27  1  0  0  0  0
 27 28  1  0  0  0  0
 28 29  1  0  0  0  0
 21 29  1  0  0  0  0
M  END
>  <CdId>
333

>  <Mol Weight>
398.39

>  <Formula>
C21H19FN2O5

>  <Molecule ChEMBL ID>
CHEMBL483140

>  <Molecule Max Phase>
None

>  <Molecular Weight>
398.39

>  <#RO5 Violations>
0

>  <AlogP>
3.79

>  <Compound Key>
3c

>  <Standard Type>
IC50

$$$$

  Mrv2114 03112311372D          

 27 29  0  0  1  0            999 V2000
    1.4289   -1.6500    0.0000 C   0  0  0  0  0  0  0  0  0  0  0  0
    1.4289   -2.4750    0.0000 C   0  0  2  0  0  0  0  0  0  0  0  0
    0.7145   -2.8875    0.0000 C   0  0  0  0  0  0  0  0  0  0  0  0
    0.0000   -2.4750    0.0000 N   0  0  0  0  0  0  0  0  0  0  0  0
   -0.7537   -2.8106    0.0000 C   0  0  0  0  0  0  0  0  0  0  0  0
   -1.3057   -2.1975    0.0000 C   0  0  0  0  0  0  0  0  0  0  0  0
   -0.8932   -1.4830    0.0000 C   0  0  0  0  0  0  0  0  0  0  0  0
   -0.0862   -1.6545    0.0000 C   0  0  2  0  0  0  0  0  0  0  0  0
    0.5269   -1.1025    0.0000 C   0  0  0  0  0  0  0  0  0  0  0  0
    2.1434   -2.8875    0.0000 N   0  0  0  0  0  0  0  0  0  0  0  0
    2.8579   -2.4750    0.0000 C   0  0  0  0  0  0  0  0  0  0  0  0
    2.8579   -1.6500    0.0000 O   0  0  0  0  0  0  0  0  0  0  0  0
    3.5724   -2.8875    0.0000 C   0  0  0  0  0  0  0  0  0  0  0  0
    4.2868   -2.4750    0.0000 C   0  0  0  0  0  0  0  0  0  0  0  0
    5.0013   -2.8875    0.0000 C   0  0  0  0  0  0  0  0  0  0  0  0
    5.0013   -3.7125    0.0000 C   0  0  0  0  0  0  0  0  0  0  0  0
    5.7158   -4.1250    0.0000 C   0  0  0  0  0  0  0  0  0  0  0  0
    6.4694   -3.7894    0.0000 N   0  0  0  0  0  0  0  0  0  0  0  0
    7.0215   -4.4025    0.0000 O   0  0  0  0  0  0  0  0  0  0  0  0
    6.6090   -5.1170    0.0000 C   0  0  0  0  0  0  0  0  0  0  0  0
    6.9445   -5.8707    0.0000 C   0  0  0  0  0  0  0  0  0  0  0  0
    7.2801   -6.6244    0.0000 F   0  0  0  0  0  0  0  0  0  0  0  0
    6.1909   -6.2062    0.0000 F   0  0  0  0  0  0  0  0  0  0  0  0
    7.6982   -5.5351    0.0000 F   0  0  0  0  0  0  0  0  0  0  0  0
    5.8020   -4.9455    0.0000 N   0  0  0  0  0  0  0  0  0  0  0  0
    4.2868   -4.1250    0.0000 C   0  0  0  0  0  0  0  0  0  0  0  0
    3.5724   -3.7125    0.0000 C   0  0  0  0  0  0  0  0  0  0  0  0
  2  1  1  1  0  0  0
  2  3  1  0  0  0  0
  3  4  1  0  0  0  0
  4  5  1  0  0  0  0
  5  6  1  0  0  0  0
  6  7  1  0  0  0  0
  8  7  1  0  0  0  0
  8  4  1  0  0  0  0
  8  9  1  6  0  0  0
  2 10  1  0  0  0  0
 10 11  1  0  0  0  0
 11 12  2  0  0  0  0
 11 13  1  0  0  0  0
 13 14  4  0  0  0  0
 14 15  4  0  0  0  0
 15 16  4  0  0  0  0
 16 17  1  0  0  0  0
 17 18  4  0  0  0  0
 18 19  4  0  0  0  0
 19 20  4  0  0  0  0
 20 21  1  0  0  0  0
 21 22  1  0  0  0  0
 21 23  1  0  0  0  0
 21 24  1  0  0  0  0
 20 25  4  0  0  0  0
 17 25  4  0  0  0  0
 16 26  4  0  0  0  0
 26 27  4  0  0  0  0
 13 27  4  0  0  0  0
M  END
>  <CdId>
334

>  <Mol Weight>
382.387

>  <Formula>
C18H21F3N4O2

>  <Molecule ChEMBL ID>
CHEMBL4798111

>  <Molecule Max Phase>
None

>  <Molecular Weight>
382.39

>  <#RO5 Violations>
0

>  <AlogP>
3.36

>  <Compound Key>
12

>  <Standard Type>
IC50

>  <Standard Relation>
'>'

>  <Standard Value>
50000.0

>  <Standard Units>
nM

$$$$

  Mrv2114 03112311372D          

 24 26  0  0  1  0            999 V2000
    4.2317    0.8041    0.0000 C   0  0  0  0  0  0  0  0  0  0  0  0
    4.2317   -0.0209    0.0000 C   0  0  0  0  0  0  0  0  0  0  0  0
    3.4067   -0.0209    0.0000 C   0  0  0  0  0  0  0  0  0  0  0  0
    5.0567   -0.0209    0.0000 C   0  0  0  0  0  0  0  0  0  0  0  0
    4.2317   -0.8459    0.0000 C   0  0  0  0  0  0  0  0  0  0  0  0
    4.8991   -1.3308    0.0000 C   0  0  0  0  0  0  0  0  0  0  0  0
    4.6442   -2.1155    0.0000 C   0  0  0  0  0  0  0  0  0  0  0  0
    5.1291   -2.7829    0.0000 N   0  0  0  0  0  0  0  0  0  0  0  0
    4.7936   -3.5366    0.0000 C   0  0  0  0  0  0  0  0  0  0  0  0
    3.9731   -3.6228    0.0000 O   0  0  0  0  0  0  0  0  0  0  0  0
    5.2785   -4.2040    0.0000 C   0  0  2  0  0  0  0  0  0  0  0  0
    6.1035   -4.2040    0.0000 C   0  0  0  0  0  0  0  0  0  0  0  0
    6.3584   -4.9886    0.0000 C   0  0  0  0  0  0  0  0  0  0  0  0
    5.6910   -5.4736    0.0000 C   0  0  0  0  0  0  0  0  0  0  0  0
    5.0235   -4.9886    0.0000 N   0  0  0  0  0  0  0  0  0  0  0  0
    4.2389   -5.2436    0.0000 C   0  0  0  0  0  0  0  0  0  0  0  0
    4.0674   -6.0506    0.0000 C   0  0  0  0  0  0  0  0  0  0  0  0
    3.2828   -6.3055    0.0000 C   0  0  0  0  0  0  0  0  0  0  0  0
    2.6697   -5.7535    0.0000 C   0  0  0  0  0  0  0  0  0  0  0  0
    1.8850   -6.0084    0.0000 Cl  0  0  0  0  0  0  0  0  0  0  0  0
    2.8412   -4.9465    0.0000 C   0  0  0  0  0  0  0  0  0  0  0  0
    3.6258   -4.6916    0.0000 C   0  0  0  0  0  0  0  0  0  0  0  0
    3.8192   -2.1155    0.0000 N   0  0  0  0  0  0  0  0  0  0  0  0
    3.5642   -1.3308    0.0000 O   0  0  0  0  0  0  0  0  0  0  0  0
  1  2  1  0  0  0  0
  2  3  1  0  0  0  0
  2  4  1  0  0  0  0
  2  5  1  0  0  0  0
  5  6  4  0  0  0  0
  6  7  4  0  0  0  0
  7  8  1  0  0  0  0
  8  9  1  0  0  0  0
  9 10  2  0  0  0  0
 11  9  1  6  0  0  0
 11 12  1  0  0  0  0
 12 13  1  0  0  0  0
 13 14  1  0  0  0  0
 14 15  1  0  0  0  0
 11 15  1  0  0  0  0
 15 16  1  0  0  0  0
 16 17  4  0  0  0  0
 17 18  4  0  0  0  0
 18 19  4  0  0  0  0
 19 20  1  0  0  0  0
 19 21  4  0  0  0  0
 21 22  4  0  0  0  0
 16 22  4  0  0  0  0
  7 23  4  0  0  0  0
 23 24  4  0  0  0  0
  5 24  4  0  0  0  0
M  END
>  <CdId>
335

>  <Mol Weight>
347.84

>  <Formula>
C18H22ClN3O2

>  <Molecule ChEMBL ID>
CHEMBL3353863

>  <Molecule Max Phase>
None

>  <Molecular Weight>
347.85

>  <#RO5 Violations>
0

>  <AlogP>
4.23

>  <Compound Key>
4b

>  <Standard Type>
IC50

>  <Standard Relation>
'='

>  <Standard Value>
3100.0

>  <Standard Units>
nM

$$$$

  Mrv2114 03112311372D          

 26 29  0  0  0  0            999 V2000
   -0.3984    0.7541    0.0000 C   0  0  0  0  0  0  0  0  0  0  0  0
   -0.1435   -0.0305    0.0000 C   0  0  0  0  0  0  0  0  0  0  0  0
   -0.6284   -0.6979    0.0000 C   0  0  0  0  0  0  0  0  0  0  0  0
   -0.1435   -1.3654    0.0000 S   0  0  0  0  0  0  0  0  0  0  0  0
    0.6411   -1.1104    0.0000 C   0  0  0  0  0  0  0  0  0  0  0  0
    0.6411   -0.2854    0.0000 C   0  0  0  0  0  0  0  0  0  0  0  0
    1.3556    0.1271    0.0000 C   0  0  0  0  0  0  0  0  0  0  0  0
    1.3556    0.9521    0.0000 O   0  0  0  0  0  0  0  0  0  0  0  0
    2.0701   -0.2854    0.0000 N   0  0  0  0  0  0  0  0  0  0  0  0
    2.7845    0.1271    0.0000 C   0  0  0  0  0  0  0  0  0  0  0  0
    2.7845    0.9521    0.0000 C   0  0  0  0  0  0  0  0  0  0  0  0
    3.4990    1.3646    0.0000 C   0  0  0  0  0  0  0  0  0  0  0  0
    3.4990    2.1896    0.0000 C   0  0  0  0  0  0  0  0  0  0  0  0
    4.2135    2.6021    0.0000 C   0  0  0  0  0  0  0  0  0  0  0  0
    4.9279    2.1896    0.0000 C   0  0  0  0  0  0  0  0  0  0  0  0
    4.9279    1.3646    0.0000 C   0  0  0  0  0  0  0  0  0  0  0  0
    4.2135    0.9521    0.0000 C   0  0  0  0  0  0  0  0  0  0  0  0
    2.0701   -1.1104    0.0000 C   0  0  0  0  0  0  0  0  0  0  0  0
    2.7845   -1.5229    0.0000 O   0  0  0  0  0  0  0  0  0  0  0  0
    1.3556   -1.5229    0.0000 N   0  0  0  0  0  0  0  0  0  0  0  0
    1.3556   -2.3479    0.0000 C   0  0  0  0  0  0  0  0  0  0  0  0
    0.6411   -2.7604    0.0000 C   0  0  0  0  0  0  0  0  0  0  0  0
    0.5549   -3.5809    0.0000 C   0  0  0  0  0  0  0  0  0  0  0  0
   -0.2521   -3.7525    0.0000 C   0  0  0  0  0  0  0  0  0  0  0  0
   -0.6646   -3.0380    0.0000 C   0  0  0  0  0  0  0  0  0  0  0  0
   -0.1126   -2.4249    0.0000 O   0  0  0  0  0  0  0  0  0  0  0  0
  1  2  1  0  0  0  0
  2  3  4  0  0  0  0
  3  4  4  0  0  0  0
  4  5  4  0  0  0  0
  5  6  4  0  0  0  0
  2  6  4  0  0  0  0
  6  7  4  0  0  0  0
  7  8  2  0  0  0  0
  7  9  4  0  0  0  0
  9 10  1  0  0  0  0
 10 11  1  0  0  0  0
 11 12  1  0  0  0  0
 12 13  4  0  0  0  0
 13 14  4  0  0  0  0
 14 15  4  0  0  0  0
 15 16  4  0  0  0  0
 16 17  4  0  0  0  0
 12 17  4  0  0  0  0
  9 18  4  0  0  0  0
 18 19  2  0  0  0  0
 18 20  4  0  0  0  0
  5 20  4  0  0  0  0
 20 21  1  0  0  0  0
 21 22  1  0  0  0  0
 22 23  1  0  0  0  0
 23 24  1  0  0  0  0
 24 25  1  0  0  0  0
 25 26  1  0  0  0  0
 22 26  1  0  0  0  0
M  END
>  <CdId>
336

>  <Mol Weight>
370.47

>  <Formula>
C20H22N2O3S

>  <Molecule ChEMBL ID>
CHEMBL4451942

>  <Molecule Max Phase>
None

>  <Molecular Weight>
370.47

>  <#RO5 Violations>
0

>  <AlogP>
2.95

>  <Compound Key>
6

>  <Standard Type>
IC50

>  <Standard Relation>
'='

>  <Standard Value>
10000.0

>  <Standard Units>
nM

$$$$

  Mrv2114 03112311372D          

 29 30  0  0  0  0            999 V2000
    0.0000    0.0000    0.0000 Cl  0  0  0  0  0  0  0  0  0  0  0  0
    2.0036    0.0000    0.0000 Cl  0  0  0  0  0  0  0  0  0  0  0  0
   -1.4554   -2.8875    0.0000 O   0  0  0  0  0  0  0  0  0  0  0  0
   -1.4554   -2.0625    0.0000 C   0  0  0  0  0  0  0  0  0  0  0  0
   -2.1699   -1.6500    0.0000 C   0  0  0  0  0  0  0  0  0  0  0  0
   -2.8843   -2.0625    0.0000 N   0  0  0  0  0  0  0  0  0  0  0  0
   -2.8843   -2.8875    0.0000 C   0  0  0  0  0  0  0  0  0  0  0  0
   -3.5988   -3.3000    0.0000 C   0  0  0  0  0  0  0  0  0  0  0  0
   -4.3133   -2.8875    0.0000 O   0  0  0  0  0  0  0  0  0  0  0  0
   -4.3133   -2.0625    0.0000 C   0  0  0  0  0  0  0  0  0  0  0  0
   -3.5988   -1.6500    0.0000 C   0  0  0  0  0  0  0  0  0  0  0  0
   -0.7409   -1.6500    0.0000 N   0  0  0  0  0  0  0  0  0  0  0  0
   -0.0265   -2.0625    0.0000 C   0  0  0  0  0  0  0  0  0  0  0  0
    0.6880   -1.6500    0.0000 C   0  0  0  0  0  0  0  0  0  0  0  0
    1.4025   -2.0625    0.0000 C   0  0  0  0  0  0  0  0  0  0  0  0
    1.4025   -2.8875    0.0000 C   0  0  0  0  0  0  0  0  0  0  0  0
    2.1170   -3.3000    0.0000 O   0  0  0  0  0  0  0  0  0  0  0  0
    2.1170   -4.1250    0.0000 C   0  0  0  0  0  0  0  0  0  0  0  0
    2.8314   -4.5375    0.0000 C   0  0  0  0  0  0  0  0  0  0  0  0
    2.8314   -5.3625    0.0000 C   0  0  0  0  0  0  0  0  0  0  0  0
    2.1170   -5.7750    0.0000 N   0  0  0  0  0  0  0  0  0  0  0  0
    2.1170   -6.6000    0.0000 C   0  0  0  0  0  0  0  0  0  0  0  0
    2.7003   -7.1834    0.0000 C   0  0  0  0  0  0  0  0  0  0  0  0
    2.1170   -7.7667    0.0000 C   0  0  0  0  0  0  0  0  0  0  0  0
    1.5336   -7.1834    0.0000 C   0  0  0  0  0  0  0  0  0  0  0  0
    1.4025   -5.3625    0.0000 C   0  0  0  0  0  0  0  0  0  0  0  0
    1.4025   -4.5375    0.0000 C   0  0  0  0  0  0  0  0  0  0  0  0
    0.6880   -3.3000    0.0000 C   0  0  0  0  0  0  0  0  0  0  0  0
   -0.0265   -2.8875    0.0000 C   0  0  0  0  0  0  0  0  0  0  0  0
  3  4  2  0  0  0  0
  4  5  1  0  0  0  0
  5  6  1  0  0  0  0
  6  7  1  0  0  0  0
  7  8  1  0  0  0  0
  8  9  1  0  0  0  0
  9 10  1  0  0  0  0
 10 11  1  0  0  0  0
  6 11  1  0  0  0  0
  4 12  1  0  0  0  0
 12 13  1  0  0  0  0
 13 14  4  0  0  0  0
 14 15  4  0  0  0  0
 15 16  4  0  0  0  0
 16 17  1  0  0  0  0
 17 18  1  0  0  0  0
 18 19  1  0  0  0  0
 19 20  1  0  0  0  0
 20 21  1  0  0  0  0
 21 22  1  0  0  0  0
 22 23  1  0  0  0  0
 23 24  1  0  0  0  0
 24 25  1  0  0  0  0
 22 25  1  0  0  0  0
 21 26  1  0  0  0  0
 26 27  1  0  0  0  0
 18 27  1  0  0  0  0
 16 28  4  0  0  0  0
 28 29  4  0  0  0  0
 13 29  4  0  0  0  0
M  END
>  <CdId>
337

>  <Mol Weight>
446.41

>  <Formula>
C21H33Cl2N3O3

>  <Molecule ChEMBL ID>
CHEMBL4593911

>  <Molecule Max Phase>
None

>  <Molecular Weight>
446.42

>  <#RO5 Violations>
0

>  <AlogP>
2.35

>  <Compound Key>
17v

>  <Standard Type>
IC50

>  <Standard Relation>
'>'

>  <Standard Value>
45000.0

>  <Standard Units>
nM

$$$$

  Mrv2114 03112311372D          

 30 33  0  0  1  0            999 V2000
   -1.7643    3.1395    0.0000 C   0  0  0  0  0  0  0  0  0  0  0  0
   -1.8505    2.3190    0.0000 C   0  0  0  0  0  0  0  0  0  0  0  0
   -1.1831    1.8341    0.0000 N   0  0  0  0  0  0  0  0  0  0  0  0
   -0.3984    2.0890    0.0000 C   0  0  0  0  0  0  0  0  0  0  0  0
    0.0865    1.4216    0.0000 C   0  0  0  0  0  0  0  0  0  0  0  0
   -0.3984    0.7541    0.0000 C   0  0  0  0  0  0  0  0  0  0  0  0
   -0.1435   -0.0305    0.0000 N   0  0  0  0  0  0  0  0  0  0  0  0
   -0.6284   -0.6979    0.0000 N   0  0  0  0  0  0  0  0  0  0  0  0
   -0.1435   -1.3654    0.0000 N   0  0  0  0  0  0  0  0  0  0  0  0
    0.6411   -1.1104    0.0000 C   0  0  0  0  0  0  0  0  0  0  0  0
    0.6411   -0.2854    0.0000 C   0  0  0  0  0  0  0  0  0  0  0  0
    1.3556    0.1271    0.0000 C   0  0  0  0  0  0  0  0  0  0  0  0
    2.0701   -0.2854    0.0000 C   0  0  2  0  0  0  0  0  0  0  0  0
    2.7845    0.1271    0.0000 C   0  0  0  0  0  0  0  0  0  0  0  0
    2.0701   -1.1104    0.0000 N   0  0  0  0  0  0  0  0  0  0  0  0
    2.7845   -1.5229    0.0000 C   0  0  0  0  0  0  0  0  0  0  0  0
    2.7845   -2.3479    0.0000 O   0  0  0  0  0  0  0  0  0  0  0  0
    3.4990   -1.1104    0.0000 C   0  0  0  0  0  0  0  0  0  0  0  0
    3.4990   -0.2854    0.0000 C   0  0  0  0  0  0  0  0  0  0  0  0
    4.2135    0.1271    0.0000 C   0  0  0  0  0  0  0  0  0  0  0  0
    4.9279   -0.2854    0.0000 N   0  0  0  0  0  0  0  0  0  0  0  0
    4.9279   -1.1104    0.0000 C   0  0  0  0  0  0  0  0  0  0  0  0
    5.6424   -1.5229    0.0000 C   0  0  0  0  0  0  0  0  0  0  0  0
    6.3569   -1.9354    0.0000 F   0  0  0  0  0  0  0  0  0  0  0  0
    5.2299   -2.2374    0.0000 F   0  0  0  0  0  0  0  0  0  0  0  0
    6.0549   -0.8085    0.0000 F   0  0  0  0  0  0  0  0  0  0  0  0
    4.2135   -1.5229    0.0000 C   0  0  0  0  0  0  0  0  0  0  0  0
    4.2135   -2.3479    0.0000 Cl  0  0  0  0  0  0  0  0  0  0  0  0
    1.3556   -1.5229    0.0000 C   0  0  0  0  0  0  0  0  0  0  0  0
   -1.1831    1.0091    0.0000 N   0  0  0  0  0  0  0  0  0  0  0  0
  1  2  1  0  0  0  0
  2  3  1  0  0  0  0
  3  4  4  0  0  0  0
  4  5  4  0  0  0  0
  5  6  4  0  0  0  0
  6  7  1  0  0  0  0
  7  8  4  0  0  0  0
  8  9  4  0  0  0  0
  9 10  4  0  0  0  0
 10 11  4  0  0  0  0
  7 11  4  0  0  0  0
 11 12  1  0  0  0  0
 13 12  1  0  0  0  0
 13 14  1  6  0  0  0
 13 15  1  0  0  0  0
 15 16  1  0  0  0  0
 16 17  2  0  0  0  0
 16 18  1  0  0  0  0
 18 19  4  0  0  0  0
 19 20  4  0  0  0  0
 20 21  4  0  0  0  0
 21 22  4  0  0  0  0
 22 23  1  0  0  0  0
 23 24  1  0  0  0  0
 23 25  1  0  0  0  0
 23 26  1  0  0  0  0
 22 27  4  0  0  0  0
 18 27  4  0  0  0  0
 27 28  1  0  0  0  0
 15 29  1  0  0  0  0
 10 29  1  0  0  0  0
  6 30  4  0  0  0  0
  3 30  4  0  0  0  0
M  END
>  <CdId>
338

>  <Mol Weight>
439.83

>  <Formula>
C18H17ClF3N7O

>  <Molecule ChEMBL ID>
CHEMBL4062508

>  <Molecule Max Phase>
None

>  <Molecular Weight>
439.83

>  <#RO5 Violations>
0

>  <AlogP>
3.14

>  <Compound Key>
39

>  <Standard Type>
IC50

$$$$

  Mrv2114 03112311372D          

 30 32  0  0  0  0            999 V2000
    1.7309   -3.6020    0.0000 C   0  0  0  0  0  0  0  0  0  0  0  0
    2.1434   -2.8875    0.0000 C   0  0  0  0  0  0  0  0  0  0  0  0
    1.7309   -2.1730    0.0000 C   0  0  0  0  0  0  0  0  0  0  0  0
    2.9684   -2.8875    0.0000 C   0  0  0  0  0  0  0  0  0  0  0  0
    3.3809   -3.6020    0.0000 C   0  0  0  0  0  0  0  0  0  0  0  0
    2.9684   -4.3164    0.0000 O   0  0  0  0  0  0  0  0  0  0  0  0
    4.2059   -3.6020    0.0000 N   0  0  0  0  0  0  0  0  0  0  0  0
    4.6184   -2.8875    0.0000 C   0  0  0  0  0  0  0  0  0  0  0  0
    4.2059   -2.1730    0.0000 C   0  0  0  0  0  0  0  0  0  0  0  0
    3.3809   -2.1730    0.0000 C   0  0  0  0  0  0  0  0  0  0  0  0
    2.9684   -1.4586    0.0000 C   0  0  0  0  0  0  0  0  0  0  0  0
    3.3809   -0.7441    0.0000 C   0  0  0  0  0  0  0  0  0  0  0  0
    2.9684   -0.0296    0.0000 S   0  0  0  0  0  0  0  0  0  0  0  0
    2.5559    0.6849    0.0000 C   0  0  0  0  0  0  0  0  0  0  0  0
    2.2539   -0.4421    0.0000 O   0  0  0  0  0  0  0  0  0  0  0  0
    3.6829    0.3829    0.0000 O   0  0  0  0  0  0  0  0  0  0  0  0
    4.2059   -0.7441    0.0000 C   0  0  0  0  0  0  0  0  0  0  0  0
    4.6184   -1.4586    0.0000 C   0  0  0  0  0  0  0  0  0  0  0  0
    4.6184   -4.3164    0.0000 C   0  0  0  0  0  0  0  0  0  0  0  0
    5.4434   -4.3164    0.0000 C   0  0  0  0  0  0  0  0  0  0  0  0
    5.8559   -5.0309    0.0000 C   0  0  0  0  0  0  0  0  0  0  0  0
    6.6809   -5.0309    0.0000 F   0  0  0  0  0  0  0  0  0  0  0  0
    5.4434   -5.7454    0.0000 C   0  0  0  0  0  0  0  0  0  0  0  0
    4.6184   -5.7454    0.0000 C   0  0  0  0  0  0  0  0  0  0  0  0
    4.2059   -6.4599    0.0000 C   0  0  0  0  0  0  0  0  0  0  0  0
    4.5415   -7.2135    0.0000 N   0  0  0  0  0  0  0  0  0  0  0  0
    3.9284   -7.7656    0.0000 N   0  0  0  0  0  0  0  0  0  0  0  0
    3.2139   -7.3531    0.0000 N   0  0  0  0  0  0  0  0  0  0  0  0
    3.3854   -6.5461    0.0000 N   0  0  0  0  0  0  0  0  0  0  0  0
    4.2059   -5.0309    0.0000 C   0  0  0  0  0  0  0  0  0  0  0  0
  1  2  1  0  0  0  0
  2  3  1  0  0  0  0
  2  4  1  0  0  0  0
  4  5  1  0  0  0  0
  5  6  2  0  0  0  0
  5  7  1  0  0  0  0
  7  8  1  0  0  0  0
  8  9  1  0  0  0  0
  9 10  4  0  0  0  0
 10 11  4  0  0  0  0
 11 12  4  0  0  0  0
 12 13  1  0  0  0  0
 13 14  1  0  0  0  0
 13 15  2  0  0  0  0
 13 16  2  0  0  0  0
 12 17  4  0  0  0  0
 17 18  4  0  0  0  0
  9 18  4  0  0  0  0
  7 19  1  0  0  0  0
 19 20  4  0  0  0  0
 20 21  4  0  0  0  0
 21 22  1  0  0  0  0
 21 23  4  0  0  0  0
 23 24  4  0  0  0  0
 24 25  1  0  0  0  0
 25 26  4  0  0  0  0
 26 27  4  0  0  0  0
 27 28  4  0  0  0  0
 28 29  4  0  0  0  0
 25 29  4  0  0  0  0
 24 30  4  0  0  0  0
 19 30  4  0  0  0  0
M  STY  1   1 DAT
M  SAL   1  1  29
M  SDT   1 MRV_IMPLICIT_H                                        
M  SDD   1     0.0000    0.0000    DR    ALL  0       0  
M  SED   1 IMPL_H1
M  END
>  <CdId>
339

>  <Mol Weight>
431.49

>  <Formula>
C20H22FN5O3S

>  <Molecule ChEMBL ID>
CHEMBL2036222

>  <Molecule Max Phase>
None

>  <Molecular Weight>
431.49

>  <#RO5 Violations>
0

>  <AlogP>
2.99

>  <Compound Key>
60

>  <Standard Type>
IC50

>  <Standard Relation>
'='

>  <Standard Value>
79.0

>  <Standard Units>
nM

$$$$

  Mrv2114 03112311372D          

 38 41  0  0  0  0            999 V2000
    1.4289   -6.6000    0.0000 C   0  0  0  0  0  0  0  0  0  0  0  0
    2.1434   -6.1875    0.0000 O   0  0  0  0  0  0  0  0  0  0  0  0
    2.8579   -6.6000    0.0000 C   0  0  0  0  0  0  0  0  0  0  0  0
    3.5724   -6.1875    0.0000 C   0  0  0  0  0  0  0  0  0  0  0  0
    4.2868   -6.6000    0.0000 C   0  0  0  0  0  0  0  0  0  0  0  0
    4.2868   -7.4250    0.0000 C   0  0  0  0  0  0  0  0  0  0  0  0
    5.0013   -7.8375    0.0000 C   0  0  0  0  0  0  0  0  0  0  0  0
    5.7158   -7.4250    0.0000 C   0  0  0  0  0  0  0  0  0  0  0  0
    6.4302   -7.8375    0.0000 N   0  0  0  0  0  0  0  0  0  0  0  0
    6.4302   -8.6625    0.0000 C   0  0  0  0  0  0  0  0  0  0  0  0
    7.1447   -7.4250    0.0000 C   0  0  0  0  0  0  0  0  0  0  0  0
    7.8592   -7.8375    0.0000 C   0  0  0  0  0  0  0  0  0  0  0  0
    8.5737   -7.4250    0.0000 N   0  0  0  0  0  0  0  0  0  0  0  0
    9.2881   -7.8375    0.0000 C   0  0  0  0  0  0  0  0  0  0  0  0
    9.2881   -8.6625    0.0000 O   0  0  0  0  0  0  0  0  0  0  0  0
   10.0026   -7.4250    0.0000 C   0  0  0  0  0  0  0  0  0  0  0  0
   10.0026   -6.6000    0.0000 C   0  0  0  0  0  0  0  0  0  0  0  0
   10.7171   -6.1875    0.0000 C   0  0  0  0  0  0  0  0  0  0  0  0
   11.4315   -6.6000    0.0000 C   0  0  0  0  0  0  0  0  0  0  0  0
   11.4315   -7.4250    0.0000 C   0  0  0  0  0  0  0  0  0  0  0  0
   10.7171   -7.8375    0.0000 C   0  0  0  0  0  0  0  0  0  0  0  0
   10.7171   -8.6625    0.0000 N   0  0  0  0  0  0  0  0  0  0  0  0
   11.4315   -9.0750    0.0000 C   0  0  0  0  0  0  0  0  0  0  0  0
   11.4315   -9.9000    0.0000 O   0  0  0  0  0  0  0  0  0  0  0  0
   12.1460   -8.6625    0.0000 C   0  0  0  0  0  0  0  0  0  0  0  0
   12.1460   -7.8375    0.0000 C   0  0  0  0  0  0  0  0  0  0  0  0
   12.8605   -7.4250    0.0000 N   0  0  0  0  0  0  0  0  0  0  0  0
   13.5749   -7.8375    0.0000 C   0  0  0  0  0  0  0  0  0  0  0  0
   14.2894   -7.4250    0.0000 C   0  0  0  0  0  0  0  0  0  0  0  0
   15.0039   -7.8375    0.0000 C   0  0  0  0  0  0  0  0  0  0  0  0
   15.0039   -8.6625    0.0000 C   0  0  0  0  0  0  0  0  0  0  0  0
   14.2894   -9.0750    0.0000 C   0  0  0  0  0  0  0  0  0  0  0  0
   13.5749   -8.6625    0.0000 C   0  0  0  0  0  0  0  0  0  0  0  0
   12.8605   -9.0750    0.0000 C   0  0  0  0  0  0  0  0  0  0  0  0
    3.5724   -7.8375    0.0000 C   0  0  0  0  0  0  0  0  0  0  0  0
    2.8579   -7.4250    0.0000 C   0  0  0  0  0  0  0  0  0  0  0  0
    2.1434   -7.8375    0.0000 O   0  0  0  0  0  0  0  0  0  0  0  0
    1.4289   -7.4250    0.0000 C   0  0  0  0  0  0  0  0  0  0  0  0
  1  2  1  0  0  0  0
  2  3  1  0  0  0  0
  3  4  4  0  0  0  0
  4  5  4  0  0  0  0
  5  6  4  0  0  0  0
  6  7  1  0  0  0  0
  7  8  1  0  0  0  0
  8  9  1  0  0  0  0
  9 10  1  0  0  0  0
  9 11  1  0  0  0  0
 11 12  1  0  0  0  0
 12 13  1  0  0  0  0
 13 14  1  0  0  0  0
 14 15  2  0  0  0  0
 14 16  1  0  0  0  0
 16 17  4  0  0  0  0
 17 18  4  0  0  0  0
 18 19  4  0  0  0  0
 19 20  4  0  0  0  0
 20 21  4  0  0  0  0
 16 21  4  0  0  0  0
 21 22  1  0  0  0  0
 22 23  1  0  0  0  0
 23 24  2  0  0  0  0
 23 25  1  0  0  0  0
 25 26  4  0  0  0  0
 26 27  4  0  0  0  0
 27 28  4  0  0  0  0
 28 29  4  0  0  0  0
 29 30  4  0  0  0  0
 30 31  4  0  0  0  0
 31 32  4  0  0  0  0
 32 33  4  0  0  0  0
 28 33  4  0  0  0  0
 33 34  4  0  0  0  0
 25 34  4  0  0  0  0
  6 35  4  0  0  0  0
 35 36  4  0  0  0  0
  3 36  4  0  0  0  0
 36 37  1  0  0  0  0
 37 38  1  0  0  0  0
M  END
>  <CdId>
340

>  <Mol Weight>
512.61

>  <Formula>
C30H32N4O4

>  <Molecule ChEMBL ID>
CHEMBL244239

>  <Molecule Max Phase>
None

>  <Molecular Weight>
512.61

>  <#RO5 Violations>
1

>  <AlogP>
4.41

>  <Compound Key>
P03

>  <Standard Type>
IC50

>  <Standard Relation>
'='

>  <Standard Value>
5820.0

>  <Standard Units>
nM

$$$$

  Mrv2114 03112311372D          

 25 27  0  0  0  0            999 V2000
    2.7512   -0.8866    0.0000 O   0  0  0  0  0  0  0  0  0  0  0  0
    2.0367   -1.2991    0.0000 C   0  0  0  0  0  0  0  0  0  0  0  0
    1.3222   -0.8866    0.0000 N   0  0  0  0  0  0  0  0  0  0  0  0
    1.3222   -0.0616    0.0000 C   0  0  0  0  0  0  0  0  0  0  0  0
    0.6078    0.3509    0.0000 C   0  0  0  0  0  0  0  0  0  0  0  0
   -0.1067   -0.0616    0.0000 C   0  0  0  0  0  0  0  0  0  0  0  0
   -0.8212    0.3509    0.0000 C   0  0  0  0  0  0  0  0  0  0  0  0
   -0.8212    1.1759    0.0000 N   0  0  0  0  0  0  0  0  0  0  0  0
   -0.1067    1.5884    0.0000 C   0  0  0  0  0  0  0  0  0  0  0  0
    0.6078    1.1759    0.0000 C   0  0  0  0  0  0  0  0  0  0  0  0
    2.0367   -2.1241    0.0000 C   0  0  0  0  0  0  0  0  0  0  0  0
    2.7041   -2.6090    0.0000 N   0  0  0  0  0  0  0  0  0  0  0  0
    2.4492   -3.3937    0.0000 C   0  0  0  0  0  0  0  0  0  0  0  0
    2.9341   -4.0611    0.0000 C   0  0  0  0  0  0  0  0  0  0  0  0
    2.5986   -4.8148    0.0000 S   0  0  0  0  0  0  0  0  0  0  0  0
    1.8449   -4.4792    0.0000 O   0  0  0  0  0  0  0  0  0  0  0  0
    3.3522   -5.1503    0.0000 O   0  0  0  0  0  0  0  0  0  0  0  0
    2.2630   -5.5684    0.0000 C   0  0  0  0  0  0  0  0  0  0  0  0
    2.7479   -6.2359    0.0000 C   0  0  0  0  0  0  0  0  0  0  0  0
    2.4124   -6.9896    0.0000 C   0  0  0  0  0  0  0  0  0  0  0  0
    1.5919   -7.0758    0.0000 C   0  0  0  0  0  0  0  0  0  0  0  0
    1.1070   -6.4084    0.0000 C   0  0  0  0  0  0  0  0  0  0  0  0
    1.4425   -5.6547    0.0000 C   0  0  0  0  0  0  0  0  0  0  0  0
    1.6242   -3.3937    0.0000 N   0  0  0  0  0  0  0  0  0  0  0  0
    1.3693   -2.6090    0.0000 O   0  0  0  0  0  0  0  0  0  0  0  0
  1  2  2  0  0  0  0
  2  3  1  0  0  0  0
  3  4  1  0  0  0  0
  4  5  1  0  0  0  0
  5  6  4  0  0  0  0
  6  7  4  0  0  0  0
  7  8  4  0  0  0  0
  8  9  4  0  0  0  0
  9 10  4  0  0  0  0
  5 10  4  0  0  0  0
  2 11  1  0  0  0  0
 11 12  4  0  0  0  0
 12 13  4  0  0  0  0
 13 14  1  0  0  0  0
 14 15  1  0  0  0  0
 15 16  2  0  0  0  0
 15 17  2  0  0  0  0
 15 18  1  0  0  0  0
 18 19  4  0  0  0  0
 19 20  4  0  0  0  0
 20 21  4  0  0  0  0
 21 22  4  0  0  0  0
 22 23  4  0  0  0  0
 18 23  4  0  0  0  0
 13 24  4  0  0  0  0
 24 25  4  0  0  0  0
 11 25  4  0  0  0  0
M  END
>  <CdId>
341

>  <Mol Weight>
358.37

>  <Formula>
C16H14N4O4S

>  <Molecule ChEMBL ID>
CHEMBL2069801

>  <Molecule Max Phase>
None

>  <Molecular Weight>
358.38

>  <#RO5 Violations>
0

>  <AlogP>
1.37

>  <Compound Key>
21

>  <Standard Type>
IC50

>  <Standard Relation>
'>'

>  <Standard Value>
20000.0

>  <Standard Units>
nM

$$$$

  Mrv2114 03112311372D          

 28 32  0  0  0  0            999 V2000
   -3.9210   -1.4389    0.0000 Cl  0  0  0  0  0  0  0  0  0  0  0  0
   -3.1005   -1.5252    0.0000 C   0  0  0  0  0  0  0  0  0  0  0  0
   -2.6156   -0.8577    0.0000 C   0  0  0  0  0  0  0  0  0  0  0  0
   -1.7951   -0.9440    0.0000 C   0  0  0  0  0  0  0  0  0  0  0  0
   -1.3102   -0.2765    0.0000 C   0  0  0  0  0  0  0  0  0  0  0  0
   -1.5651    0.5081    0.0000 N   0  0  0  0  0  0  0  0  0  0  0  0
   -0.8977    0.9930    0.0000 N   0  0  0  0  0  0  0  0  0  0  0  0
   -0.2302    0.5081    0.0000 C   0  0  0  0  0  0  0  0  0  0  0  0
    0.5544    0.7630    0.0000 C   0  0  0  0  0  0  0  0  0  0  0  0
    1.1675    0.2110    0.0000 S   0  0  0  0  0  0  0  0  0  0  0  0
    1.9521    0.4659    0.0000 C   0  0  0  0  0  0  0  0  0  0  0  0
    2.2070    1.2506    0.0000 N   0  0  0  0  0  0  0  0  0  0  0  0
    3.0320    1.2506    0.0000 N   0  0  0  0  0  0  0  0  0  0  0  0
    3.2870    0.4659    0.0000 C   0  0  0  0  0  0  0  0  0  0  0  0
    4.0716    0.2110    0.0000 C   0  0  0  0  0  0  0  0  0  0  0  0
    4.6847    0.7630    0.0000 C   0  0  0  0  0  0  0  0  0  0  0  0
    5.4693    0.5081    0.0000 C   0  0  0  0  0  0  0  0  0  0  0  0
    5.6408   -0.2989    0.0000 N   0  0  0  0  0  0  0  0  0  0  0  0
    5.0277   -0.8509    0.0000 C   0  0  0  0  0  0  0  0  0  0  0  0
    4.2431   -0.5960    0.0000 C   0  0  0  0  0  0  0  0  0  0  0  0
    2.6195   -0.0190    0.0000 N   0  0  0  0  0  0  0  0  0  0  0  0
    2.6195   -0.8440    0.0000 C   0  0  0  0  0  0  0  0  0  0  0  0
    3.0320   -1.5585    0.0000 C   0  0  0  0  0  0  0  0  0  0  0  0
    2.2070   -1.5585    0.0000 C   0  0  0  0  0  0  0  0  0  0  0  0
   -0.4852   -0.2765    0.0000 O   0  0  0  0  0  0  0  0  0  0  0  0
   -1.4595   -1.6976    0.0000 C   0  0  0  0  0  0  0  0  0  0  0  0
   -1.9445   -2.3651    0.0000 C   0  0  0  0  0  0  0  0  0  0  0  0
   -2.7650   -2.2788    0.0000 N   0  0  0  0  0  0  0  0  0  0  0  0
  1  2  1  0  0  0  0
  2  3  4  0  0  0  0
  3  4  4  0  0  0  0
  4  5  1  0  0  0  0
  5  6  4  0  0  0  0
  6  7  4  0  0  0  0
  7  8  4  0  0  0  0
  8  9  1  0  0  0  0
  9 10  1  0  0  0  0
 10 11  1  0  0  0  0
 11 12  4  0  0  0  0
 12 13  4  0  0  0  0
 13 14  4  0  0  0  0
 14 15  1  0  0  0  0
 15 16  4  0  0  0  0
 16 17  4  0  0  0  0
 17 18  4  0  0  0  0
 18 19  4  0  0  0  0
 19 20  4  0  0  0  0
 15 20  4  0  0  0  0
 14 21  4  0  0  0  0
 11 21  4  0  0  0  0
 21 22  1  0  0  0  0
 22 23  1  0  0  0  0
 23 24  1  0  0  0  0
 22 24  1  0  0  0  0
  8 25  4  0  0  0  0
  5 25  4  0  0  0  0
  4 26  4  0  0  0  0
 26 27  4  0  0  0  0
 27 28  4  0  0  0  0
  2 28  4  0  0  0  0
M  END
>  <CdId>
342

>  <Mol Weight>
411.87

>  <Formula>
C18H14ClN7OS

>  <Molecule ChEMBL ID>
CHEMBL2069800

>  <Molecule Max Phase>
None

>  <Molecular Weight>
411.88

>  <#RO5 Violations>
0

>  <AlogP>
4.07

>  <Compound Key>
20

>  <Standard Type>
IC50

>  <Standard Relation>
'>'

>  <Standard Value>
20000.0

>  <Standard Units>
nM

$$$$

  Mrv2114 03112311372D          

 25 28  0  0  0  0            999 V2000
    3.5724    3.7125    0.0000 C   0  0  0  0  0  0  0  0  0  0  0  0
    4.2868    3.3000    0.0000 C   0  0  0  0  0  0  0  0  0  0  0  0
    4.2868    2.4750    0.0000 C   0  0  0  0  0  0  0  0  0  0  0  0
    3.5724    2.0625    0.0000 C   0  0  0  0  0  0  0  0  0  0  0  0
    3.5724    1.2375    0.0000 C   0  0  0  0  0  0  0  0  0  0  0  0
    2.8579    0.8250    0.0000 N   0  0  0  0  0  0  0  0  0  0  0  0
    2.8579   -0.0000    0.0000 C   0  0  0  0  0  0  0  0  0  0  0  0
    2.1434   -0.4125    0.0000 C   0  0  0  0  0  0  0  0  0  0  0  0
    1.4289   -0.0000    0.0000 N   0  0  0  0  0  0  0  0  0  0  0  0
    0.7145   -0.4125    0.0000 C   0  0  0  0  0  0  0  0  0  0  0  0
    0.7145   -1.2375    0.0000 C   0  0  0  0  0  0  0  0  0  0  0  0
    1.3819   -1.7224    0.0000 N   0  0  0  0  0  0  0  0  0  0  0  0
    1.1270   -2.5070    0.0000 N   0  0  0  0  0  0  0  0  0  0  0  0
    0.3020   -2.5070    0.0000 C   0  0  0  0  0  0  0  0  0  0  0  0
   -0.1830   -3.1745    0.0000 C   0  0  0  0  0  0  0  0  0  0  0  0
    0.1526   -3.9282    0.0000 C   0  0  0  0  0  0  0  0  0  0  0  0
   -0.3323   -4.5956    0.0000 C   0  0  0  0  0  0  0  0  0  0  0  0
   -1.1528   -4.5094    0.0000 C   0  0  0  0  0  0  0  0  0  0  0  0
   -1.4884   -3.7557    0.0000 C   0  0  0  0  0  0  0  0  0  0  0  0
   -1.0034   -3.0882    0.0000 C   0  0  0  0  0  0  0  0  0  0  0  0
    0.0470   -1.7224    0.0000 O   0  0  0  0  0  0  0  0  0  0  0  0
    1.4289    0.8250    0.0000 C   0  0  0  0  0  0  0  0  0  0  0  0
    2.1434    1.2375    0.0000 C   0  0  0  0  0  0  0  0  0  0  0  0
    2.8579    2.4750    0.0000 C   0  0  0  0  0  0  0  0  0  0  0  0
    2.8579    3.3000    0.0000 C   0  0  0  0  0  0  0  0  0  0  0  0
  1  2  4  0  0  0  0
  2  3  4  0  0  0  0
  3  4  4  0  0  0  0
  4  5  1  0  0  0  0
  5  6  1  0  0  0  0
  6  7  1  0  0  0  0
  7  8  1  0  0  0  0
  8  9  1  0  0  0  0
  9 10  1  0  0  0  0
 10 11  1  0  0  0  0
 11 12  4  0  0  0  0
 12 13  4  0  0  0  0
 13 14  4  0  0  0  0
 14 15  1  0  0  0  0
 15 16  4  0  0  0  0
 16 17  4  0  0  0  0
 17 18  4  0  0  0  0
 18 19  4  0  0  0  0
 19 20  4  0  0  0  0
 15 20  4  0  0  0  0
 14 21  4  0  0  0  0
 11 21  4  0  0  0  0
  9 22  1  0  0  0  0
 22 23  1  0  0  0  0
  6 23  1  0  0  0  0
  4 24  4  0  0  0  0
 24 25  4  0  0  0  0
  1 25  4  0  0  0  0
M  END
>  <CdId>
343

>  <Mol Weight>
334.423

>  <Formula>
C20H22N4O

>  <Molecule ChEMBL ID>
CHEMBL1504335

>  <Molecule Max Phase>
None

>  <Molecular Weight>
334.42

>  <#RO5 Violations>
0

>  <AlogP>
3.05

>  <Compound Key>
28

>  <Standard Type>
IC50

>  <Standard Relation>
'>'

>  <Standard Value>
20000.0

>  <Standard Units>
nM

$$$$

  Mrv2114 03112311372D          

 28 30  0  0  0  0            999 V2000
    0.0000   -1.6500    0.0000 C   0  0  0  0  0  0  0  0  0  0  0  0
    0.7145   -2.0625    0.0000 C   0  0  0  0  0  0  0  0  0  0  0  0
    1.4289   -1.6500    0.0000 C   0  0  0  0  0  0  0  0  0  0  0  0
    1.4289   -0.8250    0.0000 O   0  0  0  0  0  0  0  0  0  0  0  0
    2.1434   -2.0625    0.0000 N   0  0  0  0  0  0  0  0  0  0  0  0
    2.8579   -1.6500    0.0000 C   0  0  0  0  0  0  0  0  0  0  0  0
    2.8579   -0.8250    0.0000 C   0  0  0  0  0  0  0  0  0  0  0  0
    2.1434   -0.4125    0.0000 C   0  0  0  0  0  0  0  0  0  0  0  0
    2.1434    0.4125    0.0000 C   0  0  0  0  0  0  0  0  0  0  0  0
    2.8579    0.8250    0.0000 C   0  0  0  0  0  0  0  0  0  0  0  0
    3.5724    0.4125    0.0000 C   0  0  0  0  0  0  0  0  0  0  0  0
    4.2868    0.8250    0.0000 O   0  0  0  0  0  0  0  0  0  0  0  0
    4.2868    1.6500    0.0000 C   0  0  0  0  0  0  0  0  0  0  0  0
    5.0013    2.0625    0.0000 C   0  0  0  0  0  0  0  0  0  0  0  0
    3.5724    2.0625    0.0000 C   0  0  0  0  0  0  0  0  0  0  0  0
    3.5724   -0.4125    0.0000 C   0  0  0  0  0  0  0  0  0  0  0  0
    2.1434   -2.8875    0.0000 C   0  0  0  0  0  0  0  0  0  0  0  0
    2.8579   -3.3000    0.0000 C   0  0  0  0  0  0  0  0  0  0  0  0
    2.8579   -4.1250    0.0000 C   0  0  0  0  0  0  0  0  0  0  0  0
    3.5724   -4.5375    0.0000 F   0  0  0  0  0  0  0  0  0  0  0  0
    2.1434   -4.5375    0.0000 C   0  0  0  0  0  0  0  0  0  0  0  0
    1.4289   -4.1250    0.0000 C   0  0  0  0  0  0  0  0  0  0  0  0
    0.7145   -4.5375    0.0000 C   0  0  0  0  0  0  0  0  0  0  0  0
    0.6282   -5.3580    0.0000 N   0  0  0  0  0  0  0  0  0  0  0  0
   -0.1787   -5.5295    0.0000 N   0  0  0  0  0  0  0  0  0  0  0  0
   -0.5912   -4.8150    0.0000 N   0  0  0  0  0  0  0  0  0  0  0  0
   -0.0392   -4.2019    0.0000 N   0  0  0  0  0  0  0  0  0  0  0  0
    1.4289   -3.3000    0.0000 C   0  0  0  0  0  0  0  0  0  0  0  0
  1  2  1  0  0  0  0
  2  3  1  0  0  0  0
  3  4  2  0  0  0  0
  3  5  1  0  0  0  0
  5  6  1  0  0  0  0
  6  7  1  0  0  0  0
  7  8  4  0  0  0  0
  8  9  4  0  0  0  0
  9 10  4  0  0  0  0
 10 11  4  0  0  0  0
 11 12  1  0  0  0  0
 12 13  1  0  0  0  0
 13 14  1  0  0  0  0
 13 15  1  0  0  0  0
 11 16  4  0  0  0  0
  7 16  4  0  0  0  0
  5 17  1  0  0  0  0
 17 18  4  0  0  0  0
 18 19  4  0  0  0  0
 19 20  1  0  0  0  0
 19 21  4  0  0  0  0
 21 22  4  0  0  0  0
 22 23  1  0  0  0  0
 23 24  4  0  0  0  0
 24 25  4  0  0  0  0
 25 26  4  0  0  0  0
 26 27  4  0  0  0  0
 23 27  4  0  0  0  0
 22 28  4  0  0  0  0
 17 28  4  0  0  0  0
M  STY  1   1 DAT
M  SAL   1  1  27
M  SDT   1 MRV_IMPLICIT_H                                        
M  SDD   1     0.0000    0.0000    DR    ALL  0       0  
M  SED   1 IMPL_H1
M  END
>  <CdId>
344

>  <Mol Weight>
383.427

>  <Formula>
C20H22FN5O2

>  <Molecule ChEMBL ID>
CHEMBL2036030

>  <Molecule Max Phase>
None

>  <Molecular Weight>
383.43

>  <#RO5 Violations>
0

>  <AlogP>
3.74

>  <Compound Key>
29

>  <Standard Type>
IC50

>  <Standard Relation>
'='

>  <Standard Value>
470.0

>  <Standard Units>
nM

$$$$

  Mrv2114 03112311372D          

 35 39  0  0  1  0            999 V2000
    3.1599   -3.6020    0.0000 C   0  0  0  0  0  0  0  0  0  0  0  0
    3.5724   -2.8875    0.0000 C   0  0  0  0  0  0  0  0  0  0  0  0
    3.9849   -2.1730    0.0000 C   0  0  0  0  0  0  0  0  0  0  0  0
    2.8579   -2.4750    0.0000 C   0  0  0  0  0  0  0  0  0  0  0  0
    2.1434   -2.8875    0.0000 C   0  0  0  0  0  0  0  0  0  0  0  0
    1.4289   -2.4750    0.0000 N   0  0  0  0  0  0  0  0  0  0  0  0
    0.7145   -2.8875    0.0000 C   0  0  0  0  0  0  0  0  0  0  0  0
    0.0000   -2.4750    0.0000 C   0  0  1  0  0  0  0  0  0  0  0  0
   -0.7145   -2.8875    0.0000 C   0  0  0  0  0  0  0  0  0  0  0  0
   -1.4289   -2.4750    0.0000 C   0  0  0  0  0  0  0  0  0  0  0  0
   -2.1434   -2.8875    0.0000 C   0  0  0  0  0  0  0  0  0  0  0  0
   -2.8579   -2.4750    0.0000 C   0  0  0  0  0  0  0  0  0  0  0  0
   -2.8579   -1.6500    0.0000 C   0  0  0  0  0  0  0  0  0  0  0  0
   -2.1434   -1.2375    0.0000 C   0  0  0  0  0  0  0  0  0  0  0  0
   -1.4289   -1.6500    0.0000 C   0  0  0  0  0  0  0  0  0  0  0  0
   -0.7145   -1.2375    0.0000 C   0  0  0  0  0  0  0  0  0  0  0  0
    0.0000   -1.6500    0.0000 N   0  0  0  0  0  0  0  0  0  0  0  0
    1.4289   -1.6500    0.0000 C   0  0  1  0  0  0  0  0  0  0  0  0
    0.7145   -1.2375    0.0000 C   0  0  0  0  0  0  0  0  0  0  0  0
    0.7145   -0.4125    0.0000 C   0  0  0  0  0  0  0  0  0  0  0  0
    1.4289    0.0000    0.0000 C   0  0  0  0  0  0  0  0  0  0  0  0
    2.1434   -0.4125    0.0000 C   0  0  0  0  0  0  0  0  0  0  0  0
    2.8579    0.0000    0.0000 C   0  0  0  0  0  0  0  0  0  0  0  0
    3.5724   -0.4125    0.0000 C   0  0  0  0  0  0  0  0  0  0  0  0
    3.5724   -1.2375    0.0000 C   0  0  0  0  0  0  0  0  0  0  0  0
    2.8579   -1.6500    0.0000 N   0  0  0  0  0  0  0  0  0  0  0  0
    2.1434   -1.2375    0.0000 C   0  0  0  0  0  0  0  0  0  0  0  0
    4.2868   -3.3000    0.0000 C   0  0  0  0  0  0  0  0  0  0  0  0
    5.0013   -2.8875    0.0000 N   0  0  0  0  0  0  0  0  0  0  0  0
    5.7158   -3.3000    0.0000 C   0  0  0  0  0  0  0  0  0  0  0  0
    6.4302   -2.8875    0.0000 C   0  0  0  0  0  0  0  0  0  0  0  0
    7.1447   -3.3000    0.0000 C   0  0  0  0  0  0  0  0  0  0  0  0
    7.1447   -4.1250    0.0000 O   0  0  0  0  0  0  0  0  0  0  0  0
    6.4302   -4.5375    0.0000 C   0  0  0  0  0  0  0  0  0  0  0  0
    5.7158   -4.1250    0.0000 C   0  0  0  0  0  0  0  0  0  0  0  0
  1  2  1  0  0  0  0
  2  3  1  0  0  0  0
  2  4  1  0  0  0  0
  4  5  1  0  0  0  0
  5  6  1  0  0  0  0
  6  7  1  0  0  0  0
  8  7  1  1  0  0  0
  8  9  1  0  0  0  0
  9 10  1  0  0  0  0
 10 11  4  0  0  0  0
 11 12  4  0  0  0  0
 12 13  4  0  0  0  0
 13 14  4  0  0  0  0
 14 15  4  0  0  0  0
 10 15  4  0  0  0  0
 15 16  1  0  0  0  0
 16 17  1  0  0  0  0
  8 17  1  0  0  0  0
 18  6  1  1  0  0  0
 18 19  1  0  0  0  0
 19 20  1  0  0  0  0
 20 21  1  0  0  0  0
 21 22  1  0  0  0  0
 22 23  4  0  0  0  0
 23 24  4  0  0  0  0
 24 25  4  0  0  0  0
 25 26  4  0  0  0  0
 26 27  4  0  0  0  0
 22 27  4  0  0  0  0
 18 27  1  0  0  0  0
  2 28  1  0  0  0  0
 28 29  1  0  0  0  0
 29 30  1  0  0  0  0
 30 31  1  0  0  0  0
 31 32  1  0  0  0  0
 32 33  1  0  0  0  0
 33 34  1  0  0  0  0
 34 35  1  0  0  0  0
 30 35  1  0  0  0  0
M  END
>  <CdId>
345

>  <Mol Weight>
476.709

>  <Formula>
C30H44N4O

>  <Molecule ChEMBL ID>
CHEMBL4065224

>  <Molecule Max Phase>
None

>  <Molecular Weight>
476.71

>  <#RO5 Violations>
0

>  <AlogP>
4.66

>  <Compound Key>
49c

>  <Standard Type>
IC50

>  <Standard Relation>
'<'

>  <Standard Value>
5000.0

>  <Standard Units>
nM

$$$$

  Mrv2114 03112311372D          

 26 29  0  0  1  0            999 V2000
    3.3722   -4.6332    0.0000 C   0  0  0  0  0  0  0  0  0  0  0  0
    3.0366   -3.8795    0.0000 C   0  0  0  0  0  0  0  0  0  0  0  0
    2.2296   -3.7080    0.0000 C   0  0  0  0  0  0  0  0  0  0  0  0
    2.1434   -2.8875    0.0000 C   0  0  0  0  0  0  0  0  0  0  0  0
    1.4289   -2.4750    0.0000 N   0  0  0  0  0  0  0  0  0  0  0  0
    1.4289   -1.6500    0.0000 C   0  0  0  0  0  0  0  0  0  0  0  0
    0.7145   -1.2375    0.0000 N   0  0  0  0  0  0  0  0  0  0  0  0
    0.7145   -0.4125    0.0000 C   0  0  0  0  0  0  0  0  0  0  0  0
    0.0000    0.0000    0.0000 C   0  0  1  0  0  0  0  0  0  0  0  0
   -0.7145   -0.4125    0.0000 O   0  0  0  0  0  0  0  0  0  0  0  0
    0.0000    0.8250    0.0000 C   0  0  0  0  0  0  0  0  0  0  0  0
   -0.7145    1.2375    0.0000 C   0  0  0  0  0  0  0  0  0  0  0  0
   -0.7145    2.0625    0.0000 C   0  0  0  0  0  0  0  0  0  0  0  0
    0.0000    2.4750    0.0000 C   0  0  0  0  0  0  0  0  0  0  0  0
    0.0000    3.3000    0.0000 F   0  0  0  0  0  0  0  0  0  0  0  0
    0.7145    2.0625    0.0000 C   0  0  0  0  0  0  0  0  0  0  0  0
    0.7145    1.2375    0.0000 C   0  0  0  0  0  0  0  0  0  0  0  0
    1.4289    0.0000    0.0000 N   0  0  0  0  0  0  0  0  0  0  0  0
    2.1434   -0.4125    0.0000 C   0  0  0  0  0  0  0  0  0  0  0  0
    2.8579    0.0000    0.0000 C   0  0  0  0  0  0  0  0  0  0  0  0
    3.5724   -0.4125    0.0000 C   0  0  0  0  0  0  0  0  0  0  0  0
    3.5724   -1.2375    0.0000 C   0  0  0  0  0  0  0  0  0  0  0  0
    2.8579   -1.6500    0.0000 C   0  0  0  0  0  0  0  0  0  0  0  0
    2.1434   -1.2375    0.0000 C   0  0  0  0  0  0  0  0  0  0  0  0
    2.8971   -2.5519    0.0000 N   0  0  0  0  0  0  0  0  0  0  0  0
    3.4491   -3.1650    0.0000 N   0  0  0  0  0  0  0  0  0  0  0  0
  1  2  1  0  0  0  0
  2  3  4  0  0  0  0
  3  4  4  0  0  0  0
  4  5  1  0  0  0  0
  5  6  1  0  0  0  0
  6  7  4  0  0  0  0
  7  8  4  0  0  0  0
  9  8  1  0  0  0  0
  9 10  1  1  0  0  0
  9 11  1  0  0  0  0
 11 12  4  0  0  0  0
 12 13  4  0  0  0  0
 13 14  4  0  0  0  0
 14 15  1  0  0  0  0
 14 16  4  0  0  0  0
 16 17  4  0  0  0  0
 11 17  4  0  0  0  0
  8 18  4  0  0  0  0
 18 19  4  0  0  0  0
 19 20  4  0  0  0  0
 20 21  4  0  0  0  0
 21 22  4  0  0  0  0
 22 23  4  0  0  0  0
 23 24  4  0  0  0  0
  6 24  4  0  0  0  0
 19 24  4  0  0  0  0
  4 25  4  0  0  0  0
 25 26  4  0  0  0  0
  2 26  4  0  0  0  0
M  STY  1   1 DAT
M  SAL   1  1  26
M  SDT   1 MRV_IMPLICIT_H                                        
M  SDD   1     0.0000    0.0000    DR    ALL  0       0  
M  SED   1 IMPL_H1
M  END
>  <CdId>
346

>  <Mol Weight>
349.369

>  <Formula>
C19H16FN5O

>  <Molecule ChEMBL ID>
CHEMBL3939800

>  <Molecule Max Phase>
None

>  <Molecular Weight>
349.37

>  <#RO5 Violations>
0

>  <AlogP>
3.63

>  <Compound Key>
BDBM214689

>  <Standard Type>
IC50

>  <Standard Relation>
'='

>  <Standard Value>
22700.0

>  <Standard Units>
nM

$$$$

  Mrv2114 03112311372D          

 26 29  0  0  1  0            999 V2000
    3.3722   -4.6332    0.0000 C   0  0  0  0  0  0  0  0  0  0  0  0
    3.0366   -3.8795    0.0000 C   0  0  0  0  0  0  0  0  0  0  0  0
    2.2296   -3.7080    0.0000 C   0  0  0  0  0  0  0  0  0  0  0  0
    2.1434   -2.8875    0.0000 C   0  0  0  0  0  0  0  0  0  0  0  0
    1.4289   -2.4750    0.0000 N   0  0  0  0  0  0  0  0  0  0  0  0
    1.4289   -1.6500    0.0000 C   0  0  0  0  0  0  0  0  0  0  0  0
    0.7145   -1.2375    0.0000 N   0  0  0  0  0  0  0  0  0  0  0  0
    0.7145   -0.4125    0.0000 C   0  0  0  0  0  0  0  0  0  0  0  0
    0.0000    0.0000    0.0000 C   0  0  2  0  0  0  0  0  0  0  0  0
   -0.7145   -0.4125    0.0000 O   0  0  0  0  0  0  0  0  0  0  0  0
    0.0000    0.8250    0.0000 C   0  0  0  0  0  0  0  0  0  0  0  0
   -0.7145    1.2375    0.0000 C   0  0  0  0  0  0  0  0  0  0  0  0
   -0.7145    2.0625    0.0000 C   0  0  0  0  0  0  0  0  0  0  0  0
    0.0000    2.4750    0.0000 C   0  0  0  0  0  0  0  0  0  0  0  0
    0.0000    3.3000    0.0000 F   0  0  0  0  0  0  0  0  0  0  0  0
    0.7145    2.0625    0.0000 C   0  0  0  0  0  0  0  0  0  0  0  0
    0.7145    1.2375    0.0000 C   0  0  0  0  0  0  0  0  0  0  0  0
    1.4289    0.0000    0.0000 N   0  0  0  0  0  0  0  0  0  0  0  0
    2.1434   -0.4125    0.0000 C   0  0  0  0  0  0  0  0  0  0  0  0
    2.8579    0.0000    0.0000 C   0  0  0  0  0  0  0  0  0  0  0  0
    3.5724   -0.4125    0.0000 C   0  0  0  0  0  0  0  0  0  0  0  0
    3.5724   -1.2375    0.0000 C   0  0  0  0  0  0  0  0  0  0  0  0
    2.8579   -1.6500    0.0000 C   0  0  0  0  0  0  0  0  0  0  0  0
    2.1434   -1.2375    0.0000 C   0  0  0  0  0  0  0  0  0  0  0  0
    2.8971   -2.5519    0.0000 N   0  0  0  0  0  0  0  0  0  0  0  0
    3.4491   -3.1650    0.0000 N   0  0  0  0  0  0  0  0  0  0  0  0
  1  2  1  0  0  0  0
  2  3  4  0  0  0  0
  3  4  4  0  0  0  0
  4  5  1  0  0  0  0
  5  6  1  0  0  0  0
  6  7  4  0  0  0  0
  7  8  4  0  0  0  0
  9  8  1  0  0  0  0
  9 10  1  6  0  0  0
  9 11  1  0  0  0  0
 11 12  4  0  0  0  0
 12 13  4  0  0  0  0
 13 14  4  0  0  0  0
 14 15  1  0  0  0  0
 14 16  4  0  0  0  0
 16 17  4  0  0  0  0
 11 17  4  0  0  0  0
  8 18  4  0  0  0  0
 18 19  4  0  0  0  0
 19 20  4  0  0  0  0
 20 21  4  0  0  0  0
 21 22  4  0  0  0  0
 22 23  4  0  0  0  0
 23 24  4  0  0  0  0
  6 24  4  0  0  0  0
 19 24  4  0  0  0  0
  4 25  4  0  0  0  0
 25 26  4  0  0  0  0
  2 26  4  0  0  0  0
M  STY  1   1 DAT
M  SAL   1  1  26
M  SDT   1 MRV_IMPLICIT_H                                        
M  SDD   1     0.0000    0.0000    DR    ALL  0       0  
M  SED   1 IMPL_H1
M  END
>  <CdId>
347

>  <Mol Weight>
349.369

>  <Formula>
C19H16FN5O

>  <Molecule ChEMBL ID>
CHEMBL3962269

>  <Molecule Max Phase>
None

>  <Molecular Weight>
349.37

>  <#RO5 Violations>
0

>  <AlogP>
3.63

>  <Compound Key>
BDBM214690

>  <Standard Type>
IC50

>  <Standard Relation>
'='

>  <Standard Value>
26900.0

>  <Standard Units>
nM

$$$$

  Mrv2114 03112311372D          

 18 19  0  0  0  0            999 V2000
    6.2102    1.9354    0.0000 C   0  0  0  0  0  0  0  0  0  0  0  0
    5.4957    2.3479    0.0000 C   0  0  0  0  0  0  0  0  0  0  0  0
    4.7812    1.9354    0.0000 C   0  0  0  0  0  0  0  0  0  0  0  0
    4.0668    2.3479    0.0000 S   0  0  0  0  0  0  0  0  0  0  0  0
    3.3523    1.9354    0.0000 C   0  0  0  0  0  0  0  0  0  0  0  0
    3.3523    1.1104    0.0000 C   0  0  0  0  0  0  0  0  0  0  0  0
    2.6378    0.6979    0.0000 C   0  0  0  0  0  0  0  0  0  0  0  0
    1.9233    1.1104    0.0000 C   0  0  0  0  0  0  0  0  0  0  0  0
    1.1387    0.8555    0.0000 N   0  0  0  0  0  0  0  0  0  0  0  0
    0.6538    1.5229    0.0000 C   0  0  0  0  0  0  0  0  0  0  0  0
   -0.1712    1.5229    0.0000 N   0  0  0  0  0  0  0  0  0  0  0  0
   -0.5837    0.8085    0.0000 C   0  0  0  0  0  0  0  0  0  0  0  0
   -0.1712    0.0940    0.0000 O   0  0  0  0  0  0  0  0  0  0  0  0
   -1.4087    0.8085    0.0000 O   0  0  0  0  0  0  0  0  0  0  0  0
   -1.8212    0.0940    0.0000 C   0  0  0  0  0  0  0  0  0  0  0  0
    1.1387    2.1904    0.0000 N   0  0  0  0  0  0  0  0  0  0  0  0
    1.9233    1.9354    0.0000 C   0  0  0  0  0  0  0  0  0  0  0  0
    2.6378    2.3479    0.0000 C   0  0  0  0  0  0  0  0  0  0  0  0
  1  2  1  0  0  0  0
  2  3  1  0  0  0  0
  3  4  1  0  0  0  0
  4  5  1  0  0  0  0
  5  6  4  0  0  0  0
  6  7  4  0  0  0  0
  7  8  4  0  0  0  0
  8  9  4  0  0  0  0
  9 10  4  0  0  0  0
 10 11  1  0  0  0  0
 11 12  1  0  0  0  0
 12 13  2  0  0  0  0
 12 14  1  0  0  0  0
 14 15  1  0  0  0  0
 10 16  4  0  0  0  0
 16 17  4  0  0  0  0
  8 17  4  0  0  0  0
 17 18  4  0  0  0  0
  5 18  4  0  0  0  0
M  STY  1   1 DAT
M  SAL   1  1   9
M  SDT   1 MRV_IMPLICIT_H                                        
M  SDD   1     0.0000    0.0000    DR    ALL  0       0  
M  SED   1 IMPL_H1
M  END
>  <CdId>
348

>  <Mol Weight>
265.33

>  <Formula>
C12H15N3O2S

>  <Molecule ChEMBL ID>
CHEMBL1483

>  <Molecule Name>
ALBENDAZOLE

>  <Molecule Max Phase>
4

>  <Molecular Weight>
265.34

>  <#RO5 Violations>
0

>  <AlogP>
3.24

>  <Compound Key>
Albendazole

>  <Standard Type>
IC50

>  <Standard Relation>
'>'

>  <Standard Value>
30000.0

>  <Standard Units>
nM

$$$$

  Mrv2114 03112311372D          

 29 32  0  0  1  0            999 V2000
   -2.1434    4.5375    0.0000 O   0  0  0  0  0  0  0  0  0  0  0  0
   -1.4289    4.9500    0.0000 C   0  0  0  0  0  0  0  0  0  0  0  0
   -1.4289    5.7750    0.0000 O   0  0  0  0  0  0  0  0  0  0  0  0
   -0.7145    4.5375    0.0000 C   0  0  0  0  0  0  0  0  0  0  0  0
    0.0000    4.9500    0.0000 C   0  0  0  0  0  0  0  0  0  0  0  0
    0.7145    4.5375    0.0000 C   0  0  0  0  0  0  0  0  0  0  0  0
    0.7145    3.7125    0.0000 C   0  0  0  0  0  0  0  0  0  0  0  0
    1.4289    3.3000    0.0000 O   0  0  0  0  0  0  0  0  0  0  0  0
    1.4289    2.4750    0.0000 C   0  0  0  0  0  0  0  0  0  0  0  0
    2.1434    2.0625    0.0000 C   0  0  0  0  0  0  0  0  0  0  0  0
    2.1434    1.2375    0.0000 C   0  0  0  0  0  0  0  0  0  0  0  0
    1.4289    0.8250    0.0000 N   0  0  0  0  0  0  0  0  0  0  0  0
    1.4289   -0.0000    0.0000 C   0  0  0  0  0  0  0  0  0  0  0  0
    2.1434   -0.4125    0.0000 O   0  0  0  0  0  0  0  0  0  0  0  0
    0.7145   -0.4125    0.0000 N   0  0  0  0  0  0  0  0  0  0  0  0
    0.7145   -1.2375    0.0000 C   0  0  1  0  0  0  0  0  0  0  0  0
    1.1270   -1.9520    0.0000 C   0  0  0  0  0  0  0  0  0  0  0  0
    0.3020   -1.9520    0.0000 C   0  0  2  0  0  0  0  0  0  0  0  0
   -0.4125   -2.3645    0.0000 C   0  0  0  0  0  0  0  0  0  0  0  0
   -0.4125   -3.1895    0.0000 C   0  0  0  0  0  0  0  0  0  0  0  0
   -1.1270   -3.6020    0.0000 C   0  0  0  0  0  0  0  0  0  0  0  0
   -1.8414   -3.1895    0.0000 C   0  0  0  0  0  0  0  0  0  0  0  0
   -1.8414   -2.3645    0.0000 C   0  0  0  0  0  0  0  0  0  0  0  0
   -1.1270   -1.9520    0.0000 C   0  0  0  0  0  0  0  0  0  0  0  0
    0.7145    1.2375    0.0000 C   0  0  0  0  0  0  0  0  0  0  0  0
    0.7145    2.0625    0.0000 C   0  0  0  0  0  0  0  0  0  0  0  0
    0.0000    3.3000    0.0000 C   0  0  0  0  0  0  0  0  0  0  0  0
    0.0000    2.4750    0.0000 Cl  0  0  0  0  0  0  0  0  0  0  0  0
   -0.7145    3.7125    0.0000 C   0  0  0  0  0  0  0  0  0  0  0  0
  1  2  2  0  0  0  0
  2  3  1  0  0  0  0
  2  4  1  0  0  0  0
  4  5  4  0  0  0  0
  5  6  4  0  0  0  0
  6  7  4  0  0  0  0
  7  8  1  0  0  0  0
  8  9  1  0  0  0  0
  9 10  1  0  0  0  0
 10 11  1  0  0  0  0
 11 12  1  0  0  0  0
 12 13  1  0  0  0  0
 13 14  2  0  0  0  0
 13 15  1  0  0  0  0
 16 15  1  1  0  0  0
 16 17  1  0  0  0  0
 18 17  1  0  0  0  0
 16 18  1  0  0  0  0
 18 19  1  6  0  0  0
 19 20  4  0  0  0  0
 20 21  4  0  0  0  0
 21 22  4  0  0  0  0
 22 23  4  0  0  0  0
 23 24  4  0  0  0  0
 19 24  4  0  0  0  0
 12 25  1  0  0  0  0
 25 26  1  0  0  0  0
  9 26  1  0  0  0  0
  7 27  4  0  0  0  0
 27 28  1  0  0  0  0
 27 29  4  0  0  0  0
  4 29  4  0  0  0  0
M  END
>  <CdId>
349

>  <Mol Weight>
414.89

>  <Formula>
C22H23ClN2O4

>  <Molecule ChEMBL ID>
CHEMBL3114609

>  <Molecule Max Phase>
None

>  <Molecular Weight>
414.89

>  <#RO5 Violations>
0

>  <AlogP>
4.15

>  <Compound Key>
37

>  <Standard Type>
IC50

>  <Standard Relation>
'>'

>  <Standard Value>
50000.0

>  <Standard Units>
nM

$$$$

  Mrv2114 03112311372D          

 44 49  0  0  1  0            999 V2000
   -3.5724   -7.0125    0.0000 C   0  0  0  0  0  0  0  0  0  0  0  0
   -3.5724   -6.1875    0.0000 N   0  0  0  0  0  0  0  0  0  0  0  0
   -2.8579   -5.7750    0.0000 C   0  0  1  0  0  0  0  0  0  0  0  0
   -2.1434   -6.1875    0.0000 C   0  0  0  0  0  0  0  0  0  0  0  0
   -2.8579   -4.9500    0.0000 C   0  0  0  0  0  0  0  0  0  0  0  0
   -3.5724   -4.5375    0.0000 O   0  0  0  0  0  0  0  0  0  0  0  0
   -2.1434   -4.5375    0.0000 N   0  0  0  0  0  0  0  0  0  0  0  0
   -2.1434   -3.7125    0.0000 C   0  0  0  0  0  0  0  0  0  0  0  0
   -2.8579   -3.3000    0.0000 C   0  0  0  0  0  0  0  0  0  0  0  0
   -2.8579   -2.4750    0.0000 C   0  0  0  0  0  0  0  0  0  0  0  0
   -2.1434   -2.0625    0.0000 C   0  0  0  0  0  0  0  0  0  0  0  0
   -2.1434   -1.2375    0.0000 C   0  0  0  0  0  0  0  0  0  0  0  0
   -2.8109   -0.7526    0.0000 C   0  0  0  0  0  0  0  0  0  0  0  0
   -3.5955   -1.0075    0.0000 C   0  0  0  0  0  0  0  0  0  0  0  0
   -3.7670   -1.8145    0.0000 C   0  0  0  0  0  0  0  0  0  0  0  0
   -4.5516   -2.0694    0.0000 C   0  0  0  0  0  0  0  0  0  0  0  0
   -5.1647   -1.5174    0.0000 C   0  0  0  0  0  0  0  0  0  0  0  0
   -4.9932   -0.7104    0.0000 N   0  0  0  0  0  0  0  0  0  0  0  0
   -4.2086   -0.4555    0.0000 C   0  0  0  0  0  0  0  0  0  0  0  0
   -4.0370    0.3515    0.0000 O   0  0  0  0  0  0  0  0  0  0  0  0
   -3.2524    0.6064    0.0000 C   0  0  0  0  0  0  0  0  0  0  0  0
   -2.5559    0.0320    0.0000 N   0  0  0  0  0  0  0  0  0  0  0  0
   -1.7309    0.0320    0.0000 C   0  0  0  0  0  0  0  0  0  0  0  0
   -1.1789    0.6451    0.0000 C   0  0  0  0  0  0  0  0  0  0  0  0
   -0.3719    0.4736    0.0000 C   0  0  0  0  0  0  0  0  0  0  0  0
    0.1801    1.0867    0.0000 C   0  0  0  0  0  0  0  0  0  0  0  0
   -0.1170   -0.3110    0.0000 C   0  0  0  0  0  0  0  0  0  0  0  0
   -0.6690   -0.9241    0.0000 C   0  0  0  0  0  0  0  0  0  0  0  0
   -1.4760   -0.7526    0.0000 N   0  0  0  0  0  0  0  0  0  0  0  0
   -1.4289   -2.4750    0.0000 C   0  0  0  0  0  0  0  0  0  0  0  0
   -0.7145   -2.0625    0.0000 C   0  0  0  0  0  0  0  0  0  0  0  0
    0.0000   -1.6500    0.0000 C   0  0  0  0  0  0  0  0  0  0  0  0
    0.7145   -1.2375    0.0000 C   0  0  0  0  0  0  0  0  0  0  0  0
    0.7145   -0.4125    0.0000 C   0  0  0  0  0  0  0  0  0  0  0  0
    1.4289    0.0000    0.0000 C   0  0  0  0  0  0  0  0  0  0  0  0
    2.1434   -0.4125    0.0000 C   0  0  0  0  0  0  0  0  0  0  0  0
    2.8579    0.0000    0.0000 C   0  0  0  0  0  0  0  0  0  0  0  0
    2.8579    0.8250    0.0000 C   0  0  0  0  0  0  0  0  0  0  0  0
    3.5724   -0.4125    0.0000 N   0  0  0  0  0  0  0  0  0  0  0  0
    3.5724   -1.2375    0.0000 C   0  0  0  0  0  0  0  0  0  0  0  0
    2.8579   -1.6500    0.0000 C   0  0  0  0  0  0  0  0  0  0  0  0
    2.1434   -1.2375    0.0000 C   0  0  0  0  0  0  0  0  0  0  0  0
    1.4289   -1.6500    0.0000 C   0  0  0  0  0  0  0  0  0  0  0  0
   -1.4289   -3.3000    0.0000 N   0  0  0  0  0  0  0  0  0  0  0  0
  1  2  1  0  0  0  0
  3  2  1  0  0  0  0
  3  4  1  6  0  0  0
  3  5  1  0  0  0  0
  5  6  2  0  0  0  0
  5  7  1  0  0  0  0
  7  8  1  0  0  0  0
  8  9  4  0  0  0  0
  9 10  4  0  0  0  0
 10 11  4  0  0  0  0
 11 12  1  0  0  0  0
 12 13  4  0  0  0  0
 13 14  1  0  0  0  0
 14 15  4  0  0  0  0
 15 16  4  0  0  0  0
 16 17  4  0  0  0  0
 17 18  4  0  0  0  0
 18 19  4  0  0  0  0
 14 19  4  0  0  0  0
 19 20  1  0  0  0  0
 20 21  1  0  0  0  0
 13 22  4  0  0  0  0
 22 23  4  0  0  0  0
 23 24  4  0  0  0  0
 24 25  4  0  0  0  0
 25 26  1  0  0  0  0
 25 27  4  0  0  0  0
 27 28  4  0  0  0  0
 28 29  4  0  0  0  0
 12 29  4  0  0  0  0
 23 29  4  0  0  0  0
 11 30  4  0  0  0  0
 30 31  1  0  0  0  0
 31 32  3  0  0  0  0
 32 33  1  0  0  0  0
 33 34  4  0  0  0  0
 34 35  4  0  0  0  0
 35 36  4  0  0  0  0
 36 37  4  0  0  0  0
 37 38  1  0  0  0  0
 37 39  4  0  0  0  0
 39 40  4  0  0  0  0
 40 41  4  0  0  0  0
 41 42  4  0  0  0  0
 36 42  4  0  0  0  0
 42 43  4  0  0  0  0
 33 43  4  0  0  0  0
 30 44  4  0  0  0  0
  8 44  4  0  0  0  0
M  END
>  <CdId>
350

>  <Mol Weight>
581.68

>  <Formula>
C35H31N7O2

>  <Molecule ChEMBL ID>
CHEMBL3895473

>  <Molecule Max Phase>
None

>  <Molecular Weight>
581.68

>  <#RO5 Violations>
2

>  <AlogP>
5.58

>  <Compound Key>
BDBM253991

>  <Standard Type>
IC50

>  <Standard Relation>
'='

>  <Standard Value>
11000.0

>  <Standard Units>
nM

$$$$

  Mrv2114 03112311372D          

 18 17  0  0  0  0            999 V2000
   -2.3648    0.5343    0.0000 C   0  0  0  0  0  0  0  0  0  0  0  0
   -1.6503    0.9468    0.0000 C   0  0  0  0  0  0  0  0  0  0  0  0
   -0.9358    0.5343    0.0000 C   0  0  0  0  0  0  0  0  0  0  0  0
   -0.2214    0.9468    0.0000 C   0  0  0  0  0  0  0  0  0  0  0  0
   -0.2214    1.7718    0.0000 C   0  0  0  0  0  0  0  0  0  0  0  0
    0.4931    2.1843    0.0000 C   0  0  0  0  0  0  0  0  0  0  0  0
    1.2076    1.7718    0.0000 N   0  0  0  0  0  0  0  0  0  0  0  0
    1.2076    0.9468    0.0000 C   0  0  0  0  0  0  0  0  0  0  0  0
    0.4931    0.5343    0.0000 C   0  0  0  0  0  0  0  0  0  0  0  0
    0.4931   -0.2907    0.0000 C   0  0  0  0  0  0  0  0  0  0  0  0
    1.1605   -0.7756    0.0000 C   0  0  0  0  0  0  0  0  0  0  0  0
    0.9056   -1.5602    0.0000 C   0  0  0  0  0  0  0  0  0  0  0  0
    0.0806   -1.5602    0.0000 C   0  0  0  0  0  0  0  0  0  0  0  0
   -0.4043   -2.2277    0.0000 C   0  0  0  0  0  0  0  0  0  0  0  0
   -0.0688   -2.9813    0.0000 N   0  0  0  0  0  0  0  0  0  0  0  0
   -0.1743   -0.7756    0.0000 O   0  0  0  0  0  0  0  0  0  0  0  0
    3.2111    0.0000    0.0000 Cl  0  0  0  0  0  0  0  0  0  0  0  0
    0.0000   -4.6313    0.0000 Cl  0  0  0  0  0  0  0  0  0  0  0  0
  1  2  1  0  0  0  0
  2  3  1  0  0  0  0
  3  4  1  0  0  0  0
  4  5  4  0  0  0  0
  5  6  4  0  0  0  0
  6  7  4  0  0  0  0
  7  8  4  0  0  0  0
  8  9  4  0  0  0  0
  4  9  4  0  0  0  0
  9 10  1  0  0  0  0
 10 11  4  0  0  0  0
 11 12  4  0  0  0  0
 12 13  4  0  0  0  0
 13 14  1  0  0  0  0
 14 15  1  0  0  0  0
 13 16  4  0  0  0  0
 10 16  4  0  0  0  0
M  END
>  <CdId>
351

>  <Mol Weight>
289.2

>  <Formula>
C13H18Cl2N2O

>  <Molecule ChEMBL ID>
CHEMBL4169721

>  <Molecule Max Phase>
None

>  <Molecular Weight>
289.21

>  <#RO5 Violations>
0

>  <AlogP>
2.75

>  <Compound Key>
5k

>  <Standard Type>
IC50

>  <Standard Relation>
'='

>  <Standard Value>
260.0

>  <Standard Units>
nM

$$$$

  Mrv2114 03112311372D          

 30 34  0  0  1  0            999 V2000
   -0.4732   -0.5654    0.0000 C   0  0  0  0  0  0  0  0  0  0  0  0
    0.2413   -0.9779    0.0000 O   0  0  0  0  0  0  0  0  0  0  0  0
    0.2413   -1.8029    0.0000 C   0  0  0  0  0  0  0  0  0  0  0  0
    0.9558   -2.2154    0.0000 C   0  0  0  0  0  0  0  0  0  0  0  0
    1.6702   -1.8029    0.0000 C   0  0  0  0  0  0  0  0  0  0  0  0
    2.3847   -1.3904    0.0000 N   0  0  0  0  0  0  0  0  0  0  0  0
    0.9558   -3.0404    0.0000 C   0  0  0  0  0  0  0  0  0  0  0  0
    0.2413   -3.4529    0.0000 C   0  0  0  0  0  0  0  0  0  0  0  0
   -0.4732   -3.0404    0.0000 C   0  0  0  0  0  0  0  0  0  0  0  0
   -1.2578   -3.2954    0.0000 N   0  0  0  0  0  0  0  0  0  0  0  0
   -1.7427   -2.6279    0.0000 C   0  0  0  0  0  0  0  0  0  0  0  0
   -2.5677   -2.6279    0.0000 C   0  0  0  0  0  0  0  0  0  0  0  0
   -3.0526   -1.9605    0.0000 C   0  0  0  0  0  0  0  0  0  0  0  0
   -3.8373   -2.2154    0.0000 N   0  0  0  0  0  0  0  0  0  0  0  0
   -3.8373   -3.0404    0.0000 C   0  0  0  0  0  0  0  0  0  0  0  0
   -3.0526   -3.2954    0.0000 N   0  0  0  0  0  0  0  0  0  0  0  0
   -4.5517   -3.4529    0.0000 C   0  0  2  0  0  0  0  0  0  0  0  0
   -4.5517   -4.2779    0.0000 C   0  0  0  0  0  0  0  0  0  0  0  0
   -3.8373   -4.6904    0.0000 C   0  0  0  0  0  0  0  0  0  0  0  0
   -3.8373   -5.5154    0.0000 C   0  0  0  0  0  0  0  0  0  0  0  0
   -4.5517   -5.9279    0.0000 C   0  0  0  0  0  0  0  0  0  0  0  0
   -5.2662   -5.5154    0.0000 C   0  0  0  0  0  0  0  0  0  0  0  0
   -5.9807   -5.9279    0.0000 F   0  0  0  0  0  0  0  0  0  0  0  0
   -5.2662   -4.6904    0.0000 C   0  0  0  0  0  0  0  0  0  0  0  0
   -5.9807   -4.2779    0.0000 C   0  0  0  0  0  0  0  0  0  0  0  0
   -5.2662   -3.0404    0.0000 O   0  0  0  0  0  0  0  0  0  0  0  0
   -5.2662   -2.2154    0.0000 C   0  0  0  0  0  0  0  0  0  0  0  0
   -4.5517   -1.8029    0.0000 C   0  0  0  0  0  0  0  0  0  0  0  0
   -1.2578   -1.9605    0.0000 C   0  0  0  0  0  0  0  0  0  0  0  0
   -0.4732   -2.2154    0.0000 C   0  0  0  0  0  0  0  0  0  0  0  0
  1  2  1  0  0  0  0
  2  3  1  0  0  0  0
  3  4  4  0  0  0  0
  4  5  1  0  0  0  0
  5  6  3  0  0  0  0
  4  7  4  0  0  0  0
  7  8  4  0  0  0  0
  8  9  4  0  0  0  0
  9 10  4  0  0  0  0
 10 11  4  0  0  0  0
 11 12  1  0  0  0  0
 12 13  4  0  0  0  0
 13 14  4  0  0  0  0
 14 15  4  0  0  0  0
 15 16  4  0  0  0  0
 12 16  4  0  0  0  0
 17 15  1  0  0  0  0
 17 18  1  6  0  0  0
 18 19  4  0  0  0  0
 19 20  4  0  0  0  0
 20 21  4  0  0  0  0
 21 22  4  0  0  0  0
 22 23  1  0  0  0  0
 22 24  4  0  0  0  0
 18 24  4  0  0  0  0
 24 25  1  0  0  0  0
 17 26  1  0  0  0  0
 26 27  1  0  0  0  0
 27 28  1  0  0  0  0
 14 28  1  0  0  0  0
 11 29  4  0  0  0  0
 29 30  4  0  0  0  0
  3 30  4  0  0  0  0
  9 30  4  0  0  0  0
M  STY  1   1 DAT
M  SAL   1  1  10
M  SDT   1 MRV_IMPLICIT_H                                        
M  SDD   1     0.0000    0.0000    DR    ALL  0       0  
M  SED   1 IMPL_H1
M  END
>  <CdId>
352

>  <Mol Weight>
402.429

>  <Formula>
C23H19FN4O2

>  <Molecule ChEMBL ID>
CHEMBL4451760

>  <Molecule Max Phase>
None

>  <Molecular Weight>
402.43

>  <#RO5 Violations>
0

>  <AlogP>
4.48

>  <Compound Key>
(S)-26

>  <Standard Type>
IC50

>  <Standard Relation>
'='

>  <Standard Value>
1300.0

>  <Standard Units>
nM

$$$$

  Mrv2114 03112311372D          

 37 41  0  0  1  0            999 V2000
    8.7080   -6.0101    0.0000 C   0  0  0  0  0  0  0  0  0  0  0  0
    8.1762   -5.3794    0.0000 C   0  0  0  0  0  0  0  0  0  0  0  0
    8.4565   -4.6035    0.0000 C   0  0  0  0  0  0  0  0  0  0  0  0
    7.3640   -5.5246    0.0000 N   0  0  0  0  0  0  0  0  0  0  0  0
    7.0838   -6.3006    0.0000 C   0  0  0  0  0  0  0  0  0  0  0  0
    6.8322   -4.8939    0.0000 C   0  0  0  0  0  0  0  0  0  0  0  0
    6.0201   -5.0391    0.0000 C   0  0  0  0  0  0  0  0  0  0  0  0
    5.4883   -4.4084    0.0000 C   0  0  0  0  0  0  0  0  0  0  0  0
    5.7686   -3.6325    0.0000 C   0  0  0  0  0  0  0  0  0  0  0  0
    5.2368   -3.0018    0.0000 C   0  0  1  0  0  0  0  0  0  0  0  0
    4.4247   -3.1470    0.0000 C   0  0  0  0  0  0  0  0  0  0  0  0
    3.8928   -2.5163    0.0000 C   0  0  1  0  0  0  0  0  0  0  0  0
    3.5330   -3.2587    0.0000 C   0  0  0  0  0  0  0  0  0  0  0  0
    4.1731   -1.7404    0.0000 C   0  0  1  0  0  0  0  0  0  0  0  0
    3.5218   -1.2340    0.0000 C   0  0  0  0  0  0  0  0  0  0  0  0
    2.8390   -1.6970    0.0000 C   0  0  0  0  0  0  0  0  0  0  0  0
    3.0683   -2.4895    0.0000 C   0  0  2  0  0  0  0  0  0  0  0  0
    2.3074   -2.8084    0.0000 O   0  0  0  0  0  0  0  0  0  0  0  0
    2.9469   -3.3055    0.0000 C   0  0  0  0  0  0  0  0  0  0  0  0
    2.8255   -4.1215    0.0000 C   0  0  0  0  0  0  0  0  0  0  0  0
    2.7041   -4.9376    0.0000 C   0  0  0  0  0  0  0  0  0  0  0  0
    2.5827   -5.7536    0.0000 C   0  0  0  0  0  0  0  0  0  0  0  0
    1.8880   -4.8162    0.0000 C   0  0  0  0  0  0  0  0  0  0  0  0
    3.5201   -5.0590    0.0000 C   0  0  0  0  0  0  0  0  0  0  0  0
    4.9853   -1.5952    0.0000 C   0  0  2  0  0  0  0  0  0  0  0  0
    5.2655   -0.8192    0.0000 C   0  0  0  0  0  0  0  0  0  0  0  0
    6.0777   -0.6740    0.0000 C   0  0  0  0  0  0  0  0  0  0  0  0
    6.6095   -1.3047    0.0000 C   0  0  0  0  0  0  0  0  0  0  0  0
    7.4216   -1.1595    0.0000 C   0  0  0  0  0  0  0  0  0  0  0  0
    7.9534   -1.7902    0.0000 C   0  0  0  0  0  0  0  0  0  0  0  0
    8.7655   -1.6450    0.0000 O   0  0  0  0  0  0  0  0  0  0  0  0
    7.6731   -2.5662    0.0000 C   0  0  0  0  0  0  0  0  0  0  0  0
    6.8610   -2.7114    0.0000 C   0  0  0  0  0  0  0  0  0  0  0  0
    6.3292   -2.0807    0.0000 C   0  0  2  0  0  0  0  0  0  0  0  0
    5.5171   -2.2259    0.0000 C   0  0  1  0  0  0  0  0  0  0  0  0
    6.5807   -3.4873    0.0000 C   0  0  0  0  0  0  0  0  0  0  0  0
    7.1125   -4.1180    0.0000 C   0  0  0  0  0  0  0  0  0  0  0  0
  1  2  1  0  0  0  0
  2  3  1  0  0  0  0
  2  4  1  0  0  0  0
  4  5  1  0  0  0  0
  4  6  1  0  0  0  0
  6  7  4  0  0  0  0
  7  8  4  0  0  0  0
  8  9  4  0  0  0  0
 10  9  1  1  0  0  0
 10 11  1  0  0  0  0
 12 11  1  0  0  0  0
 12 13  1  1  0  0  0
 14 12  1  0  0  0  0
 14 15  1  1  0  0  0
 15 16  1  0  0  0  0
 17 16  1  0  0  0  0
 12 17  1  0  0  0  0
 17 18  1  1  0  0  0
 17 19  1  6  0  0  0
 19 20  3  0  0  0  0
 20 21  1  0  0  0  0
 21 22  1  0  0  0  0
 21 23  1  0  0  0  0
 21 24  1  0  0  0  0
 25 14  1  0  0  0  0
 25 26  1  6  0  0  0
 26 27  1  0  0  0  0
 27 28  1  0  0  0  0
 28 29  2  0  0  0  0
 29 30  1  0  0  0  0
 30 31  2  0  0  0  0
 30 32  1  0  0  0  0
 32 33  1  0  0  0  0
 34 33  1  6  0  0  0
 34 28  1  0  0  0  0
 35 34  1  1  0  0  0
 35 25  1  0  0  0  0
 35 10  1  0  0  0  0
  9 36  4  0  0  0  0
 36 37  4  0  0  0  0
  6 37  4  0  0  0  0
M  END
>  <CdId>
353

>  <Mol Weight>
501.755

>  <Formula>
C34H47NO2

>  <Molecule ChEMBL ID>
CHEMBL4161754

>  <Molecule Max Phase>
None

>  <Molecular Weight>
501.76

>  <#RO5 Violations>
2

>  <AlogP>
7.15

>  <Compound Key>
28; ORIC-101

>  <Standard Type>
IC50

>  <Standard Relation>
'>'

>  <Standard Value>
10000.0

>  <Standard Units>
nM

$$$$

  Mrv2114 03112311372D          

 16 15  0  0  0  0            999 V2000
    0.0000    0.0000    0.0000 Cl  0  0  0  0  0  0  0  0  0  0  0  0
    2.0036    0.0000    0.0000 Cl  0  0  0  0  0  0  0  0  0  0  0  0
   -2.7048   -4.9500    0.0000 N   0  0  0  0  0  0  0  0  0  0  0  0
   -2.7048   -4.1250    0.0000 C   0  0  0  0  0  0  0  0  0  0  0  0
   -1.9903   -3.7125    0.0000 C   0  0  0  0  0  0  0  0  0  0  0  0
   -1.2758   -3.3000    0.0000 C   0  0  0  0  0  0  0  0  0  0  0  0
   -0.5614   -2.8875    0.0000 C   0  0  0  0  0  0  0  0  0  0  0  0
   -0.5614   -2.0625    0.0000 C   0  0  0  0  0  0  0  0  0  0  0  0
    0.1531   -1.6500    0.0000 N   0  0  0  0  0  0  0  0  0  0  0  0
    0.8676   -2.0625    0.0000 C   0  0  0  0  0  0  0  0  0  0  0  0
    1.5820   -1.6500    0.0000 C   0  0  0  0  0  0  0  0  0  0  0  0
    2.2965   -2.0625    0.0000 C   0  0  0  0  0  0  0  0  0  0  0  0
    2.2965   -2.8875    0.0000 C   0  0  0  0  0  0  0  0  0  0  0  0
    1.5820   -3.3000    0.0000 C   0  0  0  0  0  0  0  0  0  0  0  0
    0.8676   -2.8875    0.0000 C   0  0  0  0  0  0  0  0  0  0  0  0
    0.1531   -3.3000    0.0000 C   0  0  0  0  0  0  0  0  0  0  0  0
  3  4  1  0  0  0  0
  4  5  1  0  0  0  0
  5  6  3  0  0  0  0
  6  7  1  0  0  0  0
  7  8  4  0  0  0  0
  8  9  4  0  0  0  0
  9 10  4  0  0  0  0
 10 11  4  0  0  0  0
 11 12  4  0  0  0  0
 12 13  4  0  0  0  0
 13 14  4  0  0  0  0
 14 15  4  0  0  0  0
 10 15  4  0  0  0  0
 15 16  4  0  0  0  0
  7 16  4  0  0  0  0
M  END
>  <CdId>
354

>  <Mol Weight>
255.14

>  <Formula>
C12H12Cl2N2

>  <Molecule ChEMBL ID>
CHEMBL4173203

>  <Molecule Max Phase>
None

>  <Molecular Weight>
255.15

>  <#RO5 Violations>
0

>  <AlogP>
1.54

>  <Compound Key>
4c

>  <Standard Type>
IC50

$$$$

  Mrv2114 03112311372D          

 34 37  0  0  0  0            999 V2000
    6.4302    4.5375    0.0000 C   0  0  0  0  0  0  0  0  0  0  0  0
    6.4302    3.7125    0.0000 O   0  0  0  0  0  0  0  0  0  0  0  0
    5.7158    3.3000    0.0000 C   0  0  0  0  0  0  0  0  0  0  0  0
    5.7158    2.4750    0.0000 C   0  0  0  0  0  0  0  0  0  0  0  0
    5.0013    2.0625    0.0000 C   0  0  0  0  0  0  0  0  0  0  0  0
    4.2868    2.4750    0.0000 C   0  0  0  0  0  0  0  0  0  0  0  0
    3.5724    2.0625    0.0000 C   0  0  0  0  0  0  0  0  0  0  0  0
    3.5724    1.2375    0.0000 C   0  0  0  0  0  0  0  0  0  0  0  0
    2.8579    0.8250    0.0000 C   0  0  0  0  0  0  0  0  0  0  0  0
    2.1434    1.2375    0.0000 C   0  0  0  0  0  0  0  0  0  0  0  0
    1.4289    0.8250    0.0000 N   0  0  0  0  0  0  0  0  0  0  0  0
    1.4289   -0.0000    0.0000 C   0  0  0  0  0  0  0  0  0  0  0  0
    2.1434   -0.4125    0.0000 O   0  0  0  0  0  0  0  0  0  0  0  0
    0.7145   -0.4125    0.0000 N   0  0  0  0  0  0  0  0  0  0  0  0
    0.7145   -1.2375    0.0000 C   0  0  0  0  0  0  0  0  0  0  0  0
    1.3819   -1.7224    0.0000 C   0  0  0  0  0  0  0  0  0  0  0  0
    1.1270   -2.5070    0.0000 C   0  0  0  0  0  0  0  0  0  0  0  0
    1.6119   -3.1745    0.0000 C   0  0  0  0  0  0  0  0  0  0  0  0
    2.0968   -3.8419    0.0000 C   0  0  0  0  0  0  0  0  0  0  0  0
    0.9445   -3.6594    0.0000 C   0  0  0  0  0  0  0  0  0  0  0  0
    2.2793   -2.6896    0.0000 C   0  0  0  0  0  0  0  0  0  0  0  0
    0.3020   -2.5070    0.0000 N   0  0  0  0  0  0  0  0  0  0  0  0
    0.0470   -1.7224    0.0000 N   0  0  0  0  0  0  0  0  0  0  0  0
   -0.7376   -1.4675    0.0000 C   0  0  0  0  0  0  0  0  0  0  0  0
   -1.3507   -2.0195    0.0000 C   0  0  0  0  0  0  0  0  0  0  0  0
   -2.1353   -1.7646    0.0000 C   0  0  0  0  0  0  0  0  0  0  0  0
   -2.3068   -0.9576    0.0000 C   0  0  0  0  0  0  0  0  0  0  0  0
   -3.0915   -0.7027    0.0000 C   0  0  0  0  0  0  0  0  0  0  0  0
   -1.6937   -0.4056    0.0000 C   0  0  0  0  0  0  0  0  0  0  0  0
   -0.9091   -0.6605    0.0000 C   0  0  0  0  0  0  0  0  0  0  0  0
    2.1434    2.0625    0.0000 C   0  0  0  0  0  0  0  0  0  0  0  0
    2.8579    2.4750    0.0000 C   0  0  0  0  0  0  0  0  0  0  0  0
    4.2868    3.3000    0.0000 C   0  0  0  0  0  0  0  0  0  0  0  0
    5.0013    3.7125    0.0000 N   0  0  0  0  0  0  0  0  0  0  0  0
  1  2  1  0  0  0  0
  2  3  1  0  0  0  0
  3  4  4  0  0  0  0
  4  5  4  0  0  0  0
  5  6  4  0  0  0  0
  6  7  1  0  0  0  0
  7  8  4  0  0  0  0
  8  9  4  0  0  0  0
  9 10  4  0  0  0  0
 10 11  1  0  0  0  0
 11 12  1  0  0  0  0
 12 13  2  0  0  0  0
 12 14  1  0  0  0  0
 14 15  1  0  0  0  0
 15 16  4  0  0  0  0
 16 17  4  0  0  0  0
 17 18  1  0  0  0  0
 18 19  1  0  0  0  0
 18 20  1  0  0  0  0
 18 21  1  0  0  0  0
 17 22  4  0  0  0  0
 22 23  4  0  0  0  0
 15 23  4  0  0  0  0
 23 24  1  0  0  0  0
 24 25  4  0  0  0  0
 25 26  4  0  0  0  0
 26 27  4  0  0  0  0
 27 28  1  0  0  0  0
 27 29  4  0  0  0  0
 29 30  4  0  0  0  0
 24 30  4  0  0  0  0
 10 31  4  0  0  0  0
 31 32  4  0  0  0  0
  7 32  4  0  0  0  0
  6 33  4  0  0  0  0
 33 34  4  0  0  0  0
  3 34  4  0  0  0  0
M  END
>  <CdId>
355

>  <Mol Weight>
455.562

>  <Formula>
C27H29N5O2

>  <Molecule ChEMBL ID>
CHEMBL2425160

>  <Molecule Max Phase>
None

>  <Molecular Weight>
455.56

>  <#RO5 Violations>
1

>  <AlogP>
6.19

>  <Compound Key>
31

>  <Standard Type>
IC50

>  <Standard Relation>
'>'

>  <Standard Value>
10000.0

>  <Standard Units>
nM

$$$$

  Mrv2114 03112311372D          

 30 33  0  0  0  0            999 V2000
    5.7158    4.1250    0.0000 O   0  0  0  0  0  0  0  0  0  0  0  0
    5.0013    3.7125    0.0000 N   0  3  0  0  0  0  0  0  0  0  0  0
    4.2868    4.1250    0.0000 O   0  5  0  0  0  0  0  0  0  0  0  0
    5.0013    2.8875    0.0000 C   0  0  0  0  0  0  0  0  0  0  0  0
    5.7158    2.4750    0.0000 C   0  0  0  0  0  0  0  0  0  0  0  0
    5.7158    1.6500    0.0000 C   0  0  0  0  0  0  0  0  0  0  0  0
    5.0013    1.2375    0.0000 C   0  0  0  0  0  0  0  0  0  0  0  0
    4.2868    1.6500    0.0000 C   0  0  0  0  0  0  0  0  0  0  0  0
    3.5724    1.2375    0.0000 C   0  0  0  0  0  0  0  0  0  0  0  0
    3.5724    0.4125    0.0000 C   0  0  0  0  0  0  0  0  0  0  0  0
    2.8579   -0.0000    0.0000 C   0  0  0  0  0  0  0  0  0  0  0  0
    2.1434    0.4125    0.0000 C   0  0  0  0  0  0  0  0  0  0  0  0
    1.4289   -0.0000    0.0000 S   0  0  0  0  0  0  0  0  0  0  0  0
    1.0164    0.7145    0.0000 O   0  0  0  0  0  0  0  0  0  0  0  0
    1.8414   -0.7145    0.0000 O   0  0  0  0  0  0  0  0  0  0  0  0
    0.7145   -0.4125    0.0000 N   0  0  0  0  0  0  0  0  0  0  0  0
    0.7145   -1.2375    0.0000 C   0  0  0  0  0  0  0  0  0  0  0  0
    1.3819   -1.7224    0.0000 C   0  0  0  0  0  0  0  0  0  0  0  0
    1.1270   -2.5070    0.0000 C   0  0  0  0  0  0  0  0  0  0  0  0
    0.3020   -2.5070    0.0000 N   0  0  0  0  0  0  0  0  0  0  0  0
    0.0470   -1.7224    0.0000 N   0  0  0  0  0  0  0  0  0  0  0  0
   -0.7376   -1.4675    0.0000 C   0  0  0  0  0  0  0  0  0  0  0  0
   -1.3507   -2.0195    0.0000 C   0  0  0  0  0  0  0  0  0  0  0  0
   -2.1353   -1.7646    0.0000 C   0  0  0  0  0  0  0  0  0  0  0  0
   -2.3068   -0.9576    0.0000 C   0  0  0  0  0  0  0  0  0  0  0  0
   -1.6937   -0.4056    0.0000 C   0  0  0  0  0  0  0  0  0  0  0  0
   -0.9091   -0.6605    0.0000 C   0  0  0  0  0  0  0  0  0  0  0  0
    2.1434    1.2375    0.0000 C   0  0  0  0  0  0  0  0  0  0  0  0
    2.8579    1.6500    0.0000 C   0  0  0  0  0  0  0  0  0  0  0  0
    4.2868    2.4750    0.0000 C   0  0  0  0  0  0  0  0  0  0  0  0
  1  2  2  0  0  0  0
  2  3  1  0  0  0  0
  2  4  1  0  0  0  0
  4  5  4  0  0  0  0
  5  6  4  0  0  0  0
  6  7  4  0  0  0  0
  7  8  4  0  0  0  0
  8  9  1  0  0  0  0
  9 10  4  0  0  0  0
 10 11  4  0  0  0  0
 11 12  4  0  0  0  0
 12 13  1  0  0  0  0
 13 14  2  0  0  0  0
 13 15  2  0  0  0  0
 13 16  1  0  0  0  0
 16 17  1  0  0  0  0
 17 18  4  0  0  0  0
 18 19  4  0  0  0  0
 19 20  4  0  0  0  0
 20 21  4  0  0  0  0
 17 21  4  0  0  0  0
 21 22  1  0  0  0  0
 22 23  4  0  0  0  0
 23 24  4  0  0  0  0
 24 25  4  0  0  0  0
 25 26  4  0  0  0  0
 26 27  4  0  0  0  0
 22 27  4  0  0  0  0
 12 28  4  0  0  0  0
 28 29  4  0  0  0  0
  9 29  4  0  0  0  0
  8 30  4  0  0  0  0
  4 30  4  0  0  0  0
M  CHG  2   2   1   3  -1
M  END
>  <CdId>
356

>  <Mol Weight>
420.44

>  <Formula>
C21H16N4O4S

>  <Molecule ChEMBL ID>
CHEMBL120426

>  <Molecule Max Phase>
None

>  <Molecular Weight>
420.45

>  <#RO5 Violations>
0

>  <AlogP>
4.25

>  <Compound Key>
3

>  <Standard Type>
IC50

>  <Standard Relation>
'='

>  <Standard Value>
7000.0

>  <Standard Units>
nM

$$$$

  Mrv2114 03112311372D          

 42 47  0  0  1  0            999 V2000
   -3.5724   -7.0125    0.0000 C   0  0  0  0  0  0  0  0  0  0  0  0
   -3.5724   -6.1875    0.0000 N   0  0  0  0  0  0  0  0  0  0  0  0
   -2.8579   -5.7750    0.0000 C   0  0  1  0  0  0  0  0  0  0  0  0
   -2.1434   -6.1875    0.0000 C   0  0  0  0  0  0  0  0  0  0  0  0
   -2.8579   -4.9500    0.0000 C   0  0  0  0  0  0  0  0  0  0  0  0
   -3.5724   -4.5375    0.0000 O   0  0  0  0  0  0  0  0  0  0  0  0
   -2.1434   -4.5375    0.0000 N   0  0  0  0  0  0  0  0  0  0  0  0
   -2.1434   -3.7125    0.0000 C   0  0  0  0  0  0  0  0  0  0  0  0
   -2.8579   -3.3000    0.0000 C   0  0  0  0  0  0  0  0  0  0  0  0
   -2.8579   -2.4750    0.0000 C   0  0  0  0  0  0  0  0  0  0  0  0
   -2.1434   -2.0625    0.0000 C   0  0  0  0  0  0  0  0  0  0  0  0
   -2.1434   -1.2375    0.0000 C   0  0  0  0  0  0  0  0  0  0  0  0
   -2.8109   -0.7526    0.0000 C   0  0  0  0  0  0  0  0  0  0  0  0
   -3.5955   -1.0075    0.0000 C   0  0  0  0  0  0  0  0  0  0  0  0
   -3.8504   -1.7921    0.0000 C   0  0  0  0  0  0  0  0  0  0  0  0
   -4.6754   -1.7921    0.0000 N   0  0  0  0  0  0  0  0  0  0  0  0
   -4.9304   -1.0075    0.0000 C   0  0  0  0  0  0  0  0  0  0  0  0
   -4.2629   -0.5226    0.0000 N   0  0  0  0  0  0  0  0  0  0  0  0
   -4.2629    0.3024    0.0000 C   0  0  0  0  0  0  0  0  0  0  0  0
   -2.5559    0.0320    0.0000 N   0  0  0  0  0  0  0  0  0  0  0  0
   -1.7309    0.0320    0.0000 C   0  0  0  0  0  0  0  0  0  0  0  0
   -1.1789    0.6451    0.0000 C   0  0  0  0  0  0  0  0  0  0  0  0
   -0.3719    0.4736    0.0000 C   0  0  0  0  0  0  0  0  0  0  0  0
    0.1801    1.0867    0.0000 C   0  0  0  0  0  0  0  0  0  0  0  0
   -0.1170   -0.3110    0.0000 C   0  0  0  0  0  0  0  0  0  0  0  0
   -0.6690   -0.9241    0.0000 C   0  0  0  0  0  0  0  0  0  0  0  0
   -1.4760   -0.7526    0.0000 N   0  0  0  0  0  0  0  0  0  0  0  0
   -1.4289   -2.4750    0.0000 C   0  0  0  0  0  0  0  0  0  0  0  0
   -0.7145   -2.0625    0.0000 C   0  0  0  0  0  0  0  0  0  0  0  0
    0.0000   -1.6500    0.0000 C   0  0  0  0  0  0  0  0  0  0  0  0
    0.7145   -1.2375    0.0000 C   0  0  0  0  0  0  0  0  0  0  0  0
    0.7145   -0.4125    0.0000 C   0  0  0  0  0  0  0  0  0  0  0  0
    1.4289    0.0000    0.0000 C   0  0  0  0  0  0  0  0  0  0  0  0
    2.1434   -0.4125    0.0000 C   0  0  0  0  0  0  0  0  0  0  0  0
    2.8579    0.0000    0.0000 C   0  0  0  0  0  0  0  0  0  0  0  0
    2.8579    0.8250    0.0000 C   0  0  0  0  0  0  0  0  0  0  0  0
    3.5724   -0.4125    0.0000 N   0  0  0  0  0  0  0  0  0  0  0  0
    3.5724   -1.2375    0.0000 C   0  0  0  0  0  0  0  0  0  0  0  0
    2.8579   -1.6500    0.0000 C   0  0  0  0  0  0  0  0  0  0  0  0
    2.1434   -1.2375    0.0000 C   0  0  0  0  0  0  0  0  0  0  0  0
    1.4289   -1.6500    0.0000 C   0  0  0  0  0  0  0  0  0  0  0  0
   -1.4289   -3.3000    0.0000 N   0  0  0  0  0  0  0  0  0  0  0  0
  1  2  1  0  0  0  0
  3  2  1  0  0  0  0
  3  4  1  6  0  0  0
  3  5  1  0  0  0  0
  5  6  2  0  0  0  0
  5  7  1  0  0  0  0
  7  8  1  0  0  0  0
  8  9  4  0  0  0  0
  9 10  4  0  0  0  0
 10 11  4  0  0  0  0
 11 12  1  0  0  0  0
 12 13  4  0  0  0  0
 13 14  1  0  0  0  0
 14 15  4  0  0  0  0
 15 16  4  0  0  0  0
 16 17  4  0  0  0  0
 17 18  4  0  0  0  0
 14 18  4  0  0  0  0
 18 19  1  0  0  0  0
 13 20  4  0  0  0  0
 20 21  4  0  0  0  0
 21 22  4  0  0  0  0
 22 23  4  0  0  0  0
 23 24  1  0  0  0  0
 23 25  4  0  0  0  0
 25 26  4  0  0  0  0
 26 27  4  0  0  0  0
 12 27  4  0  0  0  0
 21 27  4  0  0  0  0
 11 28  4  0  0  0  0
 28 29  1  0  0  0  0
 29 30  3  0  0  0  0
 30 31  1  0  0  0  0
 31 32  4  0  0  0  0
 32 33  4  0  0  0  0
 33 34  4  0  0  0  0
 34 35  4  0  0  0  0
 35 36  1  0  0  0  0
 35 37  4  0  0  0  0
 37 38  4  0  0  0  0
 38 39  4  0  0  0  0
 39 40  4  0  0  0  0
 34 40  4  0  0  0  0
 40 41  4  0  0  0  0
 31 41  4  0  0  0  0
 28 42  4  0  0  0  0
  8 42  4  0  0  0  0
M  END
>  <CdId>
357

>  <Mol Weight>
554.658

>  <Formula>
C33H30N8O

>  <Molecule ChEMBL ID>
CHEMBL3905467

>  <Molecule Max Phase>
None

>  <Molecular Weight>
554.66

>  <#RO5 Violations>
1

>  <AlogP>
4.91

>  <Compound Key>
BDBM253994

>  <Standard Type>
IC50

>  <Standard Relation>
'='

>  <Standard Value>
9800.0

>  <Standard Units>
nM

$$$$

  Mrv2114 03112311372D          

 17 18  0  0  1  0            999 V2000
    0.1067    6.4152    0.0000 C   0  0  0  0  0  0  0  0  0  0  0  0
    0.1067    5.5902    0.0000 C   0  0  0  0  0  0  0  0  0  0  0  0
   -0.7183    5.5902    0.0000 C   0  0  0  0  0  0  0  0  0  0  0  0
    0.9317    5.5902    0.0000 C   0  0  0  0  0  0  0  0  0  0  0  0
    0.1067    4.7652    0.0000 C   0  0  0  0  0  0  0  0  0  0  0  0
   -0.6078    4.3527    0.0000 C   0  0  1  0  0  0  0  0  0  0  0  0
   -0.6078    3.5277    0.0000 C   0  0  0  0  0  0  0  0  0  0  0  0
   -1.3222    3.1152    0.0000 C   0  0  1  0  0  0  0  0  0  0  0  0
   -1.3222    2.2902    0.0000 C   0  0  0  0  0  0  0  0  0  0  0  0
   -0.6548    1.8053    0.0000 C   0  0  0  0  0  0  0  0  0  0  0  0
   -0.9097    1.0206    0.0000 C   0  0  0  0  0  0  0  0  0  0  0  0
   -0.4248    0.3532    0.0000 O   0  0  0  0  0  0  0  0  0  0  0  0
   -1.7347    1.0206    0.0000 N   0  0  0  0  0  0  0  0  0  0  0  0
   -1.9897    1.8053    0.0000 O   0  0  0  0  0  0  0  0  0  0  0  0
   -2.0367    3.5277    0.0000 C   0  0  0  0  0  0  0  0  0  0  0  0
   -2.0367    4.3527    0.0000 C   0  0  0  0  0  0  0  0  0  0  0  0
   -1.3222    4.7652    0.0000 N   0  0  0  0  0  0  0  0  0  0  0  0
  1  2  1  0  0  0  0
  2  3  1  0  0  0  0
  2  4  1  0  0  0  0
  2  5  1  0  0  0  0
  6  5  1  1  0  0  0
  6  7  1  0  0  0  0
  8  7  1  0  0  0  0
  8  9  1  1  0  0  0
  9 10  4  0  0  0  0
 10 11  4  0  0  0  0
 11 12  2  0  0  0  0
 11 13  4  0  0  0  0
 13 14  4  0  0  0  0
  9 14  4  0  0  0  0
  8 15  1  0  0  0  0
 15 16  1  0  0  0  0
 16 17  1  0  0  0  0
  6 17  1  0  0  0  0
M  STY  1   1 DAT
M  SAL   1  1  13
M  SDT   1 MRV_IMPLICIT_H                                        
M  SDD   1     0.0000    0.0000    DR    ALL  0       0  
M  SED   1 IMPL_H1
M  END
>  <CdId>
358

>  <Mol Weight>
238.331

>  <Formula>
C13H22N2O2

>  <Molecule ChEMBL ID>
CHEMBL3287851

>  <Molecule Max Phase>
None

>  <Molecular Weight>
238.33

>  <#RO5 Violations>
0

>  <AlogP>
2.24

>  <Compound Key>
19, AZD6564

>  <Standard Type>
IC50

>  <Standard Relation>
'>'

>  <Standard Value>
2.0E7

>  <Standard Units>
nM

$$$$

  Mrv2114 03112311372D          

 28 30  0  0  0  0            999 V2000
    0.0000   -1.6500    0.0000 C   0  0  0  0  0  0  0  0  0  0  0  0
    0.7145   -2.0625    0.0000 C   0  0  0  0  0  0  0  0  0  0  0  0
    1.4289   -1.6500    0.0000 C   0  0  0  0  0  0  0  0  0  0  0  0
    1.4289   -0.8250    0.0000 O   0  0  0  0  0  0  0  0  0  0  0  0
    2.1434   -2.0625    0.0000 N   0  0  0  0  0  0  0  0  0  0  0  0
    2.8579   -1.6500    0.0000 C   0  0  0  0  0  0  0  0  0  0  0  0
    2.8579   -0.8250    0.0000 C   0  0  0  0  0  0  0  0  0  0  0  0
    2.1434   -0.4125    0.0000 C   0  0  0  0  0  0  0  0  0  0  0  0
    2.1434    0.4125    0.0000 C   0  0  0  0  0  0  0  0  0  0  0  0
    2.8579    0.8250    0.0000 C   0  0  0  0  0  0  0  0  0  0  0  0
    2.8579    1.6500    0.0000 S   0  0  0  0  0  0  0  0  0  0  0  0
    2.8579    2.4750    0.0000 C   0  0  0  0  0  0  0  0  0  0  0  0
    2.0329    1.6500    0.0000 O   0  0  0  0  0  0  0  0  0  0  0  0
    3.6829    1.6500    0.0000 O   0  0  0  0  0  0  0  0  0  0  0  0
    3.5724    0.4125    0.0000 C   0  0  0  0  0  0  0  0  0  0  0  0
    3.5724   -0.4125    0.0000 C   0  0  0  0  0  0  0  0  0  0  0  0
    2.1434   -2.8875    0.0000 C   0  0  0  0  0  0  0  0  0  0  0  0
    2.8579   -3.3000    0.0000 C   0  0  0  0  0  0  0  0  0  0  0  0
    2.8579   -4.1250    0.0000 C   0  0  0  0  0  0  0  0  0  0  0  0
    3.5724   -4.5375    0.0000 F   0  0  0  0  0  0  0  0  0  0  0  0
    2.1434   -4.5375    0.0000 C   0  0  0  0  0  0  0  0  0  0  0  0
    1.4289   -4.1250    0.0000 C   0  0  0  0  0  0  0  0  0  0  0  0
    0.7145   -4.5375    0.0000 C   0  0  0  0  0  0  0  0  0  0  0  0
    0.6282   -5.3580    0.0000 N   0  0  0  0  0  0  0  0  0  0  0  0
   -0.1787   -5.5295    0.0000 N   0  0  0  0  0  0  0  0  0  0  0  0
   -0.5912   -4.8150    0.0000 N   0  0  0  0  0  0  0  0  0  0  0  0
   -0.0392   -4.2019    0.0000 N   0  0  0  0  0  0  0  0  0  0  0  0
    1.4289   -3.3000    0.0000 C   0  0  0  0  0  0  0  0  0  0  0  0
  1  2  1  0  0  0  0
  2  3  1  0  0  0  0
  3  4  2  0  0  0  0
  3  5  1  0  0  0  0
  5  6  1  0  0  0  0
  6  7  1  0  0  0  0
  7  8  4  0  0  0  0
  8  9  4  0  0  0  0
  9 10  4  0  0  0  0
 10 11  1  0  0  0  0
 11 12  1  0  0  0  0
 11 13  2  0  0  0  0
 11 14  2  0  0  0  0
 10 15  4  0  0  0  0
 15 16  4  0  0  0  0
  7 16  4  0  0  0  0
  5 17  1  0  0  0  0
 17 18  4  0  0  0  0
 18 19  4  0  0  0  0
 19 20  1  0  0  0  0
 19 21  4  0  0  0  0
 21 22  4  0  0  0  0
 22 23  1  0  0  0  0
 23 24  4  0  0  0  0
 24 25  4  0  0  0  0
 25 26  4  0  0  0  0
 26 27  4  0  0  0  0
 23 27  4  0  0  0  0
 22 28  4  0  0  0  0
 17 28  4  0  0  0  0
M  STY  1   1 DAT
M  SAL   1  1  27
M  SDT   1 MRV_IMPLICIT_H                                        
M  SDD   1     0.0000    0.0000    DR    ALL  0       0  
M  SED   1 IMPL_H1
M  END
>  <CdId>
359

>  <Mol Weight>
403.43

>  <Formula>
C18H18FN5O3S

>  <Molecule ChEMBL ID>
CHEMBL2036220

>  <Molecule Max Phase>
None

>  <Molecular Weight>
403.44

>  <#RO5 Violations>
0

>  <AlogP>
2.35

>  <Compound Key>
58

>  <Standard Type>
IC50

>  <Standard Relation>
'='

>  <Standard Value>
54.0

>  <Standard Units>
nM

$$$$

  Mrv2114 03112311372D          

 22 24  0  0  0  0            999 V2000
    4.2868    1.6500    0.0000 N   0  0  0  0  0  0  0  0  0  0  0  0
    3.5724    1.2375    0.0000 C   0  0  0  0  0  0  0  0  0  0  0  0
    3.5724    0.4125    0.0000 C   0  0  0  0  0  0  0  0  0  0  0  0
    2.8579   -0.0000    0.0000 C   0  0  0  0  0  0  0  0  0  0  0  0
    2.1434    0.4125    0.0000 C   0  0  0  0  0  0  0  0  0  0  0  0
    1.4289   -0.0000    0.0000 S   0  0  0  0  0  0  0  0  0  0  0  0
    1.0164    0.7145    0.0000 O   0  0  0  0  0  0  0  0  0  0  0  0
    1.8414   -0.7145    0.0000 O   0  0  0  0  0  0  0  0  0  0  0  0
    0.7145   -0.4125    0.0000 N   0  0  0  0  0  0  0  0  0  0  0  0
    0.7145   -1.2375    0.0000 C   0  0  0  0  0  0  0  0  0  0  0  0
    1.3819   -1.7224    0.0000 C   0  0  0  0  0  0  0  0  0  0  0  0
    1.1270   -2.5070    0.0000 C   0  0  0  0  0  0  0  0  0  0  0  0
    0.3020   -2.5070    0.0000 N   0  0  0  0  0  0  0  0  0  0  0  0
    0.0470   -1.7224    0.0000 N   0  0  0  0  0  0  0  0  0  0  0  0
   -0.7376   -1.4675    0.0000 C   0  0  0  0  0  0  0  0  0  0  0  0
   -1.3507   -2.0195    0.0000 C   0  0  0  0  0  0  0  0  0  0  0  0
   -2.1353   -1.7646    0.0000 C   0  0  0  0  0  0  0  0  0  0  0  0
   -2.3068   -0.9576    0.0000 C   0  0  0  0  0  0  0  0  0  0  0  0
   -1.6937   -0.4056    0.0000 C   0  0  0  0  0  0  0  0  0  0  0  0
   -0.9091   -0.6605    0.0000 C   0  0  0  0  0  0  0  0  0  0  0  0
    2.1434    1.2375    0.0000 C   0  0  0  0  0  0  0  0  0  0  0  0
    2.8579    1.6500    0.0000 C   0  0  0  0  0  0  0  0  0  0  0  0
  1  2  1  0  0  0  0
  2  3  4  0  0  0  0
  3  4  4  0  0  0  0
  4  5  4  0  0  0  0
  5  6  1  0  0  0  0
  6  7  2  0  0  0  0
  6  8  2  0  0  0  0
  6  9  1  0  0  0  0
  9 10  1  0  0  0  0
 10 11  4  0  0  0  0
 11 12  4  0  0  0  0
 12 13  4  0  0  0  0
 13 14  4  0  0  0  0
 10 14  4  0  0  0  0
 14 15  1  0  0  0  0
 15 16  4  0  0  0  0
 16 17  4  0  0  0  0
 17 18  4  0  0  0  0
 18 19  4  0  0  0  0
 19 20  4  0  0  0  0
 15 20  4  0  0  0  0
  5 21  4  0  0  0  0
 21 22  4  0  0  0  0
  2 22  4  0  0  0  0
M  END
>  <CdId>
360

>  <Mol Weight>
314.36

>  <Formula>
C15H14N4O2S

>  <Molecule ChEMBL ID>
CHEMBL1109

>  <Molecule Name>
SULFAPHENAZOLE

>  <Molecule Max Phase>
4

>  <Molecular Weight>
314.37

>  <#RO5 Violations>
0

>  <AlogP>
2.26

>  <Compound Key>
SPA

>  <Standard Type>
IC50

>  <Standard Relation>
'='

>  <Standard Value>
130000.0

>  <Standard Units>
nM

$$$$

  Mrv2114 03112311372D          

 33 36  0  0  0  0            999 V2000
   -5.7158    1.6500    0.0000 O   0  0  0  0  0  0  0  0  0  0  0  0
   -5.0013    1.2375    0.0000 N   0  3  0  0  0  0  0  0  0  0  0  0
   -5.0013    0.4125    0.0000 O   0  5  0  0  0  0  0  0  0  0  0  0
   -4.2868    1.6500    0.0000 C   0  0  0  0  0  0  0  0  0  0  0  0
   -4.2868    2.4750    0.0000 C   0  0  0  0  0  0  0  0  0  0  0  0
   -3.5724    2.8875    0.0000 C   0  0  0  0  0  0  0  0  0  0  0  0
   -2.8579    2.4750    0.0000 C   0  0  0  0  0  0  0  0  0  0  0  0
   -2.8579    1.6500    0.0000 C   0  0  0  0  0  0  0  0  0  0  0  0
   -2.1434    1.2375    0.0000 C   0  0  0  0  0  0  0  0  0  0  0  0
   -1.4289    1.6500    0.0000 C   0  0  0  0  0  0  0  0  0  0  0  0
   -0.7145    1.2375    0.0000 C   0  0  0  0  0  0  0  0  0  0  0  0
   -0.7145    0.4125    0.0000 C   0  0  0  0  0  0  0  0  0  0  0  0
    0.0000   -0.0000    0.0000 S   0  0  0  0  0  0  0  0  0  0  0  0
    0.4125    0.7145    0.0000 O   0  0  0  0  0  0  0  0  0  0  0  0
   -0.4125   -0.7145    0.0000 O   0  0  0  0  0  0  0  0  0  0  0  0
    0.7145   -0.4125    0.0000 N   0  0  0  0  0  0  0  0  0  0  0  0
    1.4289   -0.0000    0.0000 C   0  0  0  0  0  0  0  0  0  0  0  0
    1.4289    0.8250    0.0000 C   0  0  0  0  0  0  0  0  0  0  0  0
    2.1434    1.2375    0.0000 O   0  0  0  0  0  0  0  0  0  0  0  0
    0.7145   -1.2375    0.0000 C   0  0  0  0  0  0  0  0  0  0  0  0
    1.3819   -1.7224    0.0000 C   0  0  0  0  0  0  0  0  0  0  0  0
    1.1270   -2.5070    0.0000 C   0  0  0  0  0  0  0  0  0  0  0  0
    0.3020   -2.5070    0.0000 N   0  0  0  0  0  0  0  0  0  0  0  0
    0.0470   -1.7224    0.0000 N   0  0  0  0  0  0  0  0  0  0  0  0
   -0.7376   -1.4675    0.0000 C   0  0  0  0  0  0  0  0  0  0  0  0
   -1.3507   -2.0195    0.0000 C   0  0  0  0  0  0  0  0  0  0  0  0
   -2.1353   -1.7646    0.0000 C   0  0  0  0  0  0  0  0  0  0  0  0
   -2.3068   -0.9576    0.0000 C   0  0  0  0  0  0  0  0  0  0  0  0
   -1.6937   -0.4056    0.0000 C   0  0  0  0  0  0  0  0  0  0  0  0
   -0.9091   -0.6605    0.0000 C   0  0  0  0  0  0  0  0  0  0  0  0
   -1.4289   -0.0000    0.0000 C   0  0  0  0  0  0  0  0  0  0  0  0
   -2.1434    0.4125    0.0000 C   0  0  0  0  0  0  0  0  0  0  0  0
   -3.5724    1.2375    0.0000 C   0  0  0  0  0  0  0  0  0  0  0  0
  1  2  2  0  0  0  0
  2  3  1  0  0  0  0
  2  4  1  0  0  0  0
  4  5  4  0  0  0  0
  5  6  4  0  0  0  0
  6  7  4  0  0  0  0
  7  8  4  0  0  0  0
  8  9  1  0  0  0  0
  9 10  4  0  0  0  0
 10 11  4  0  0  0  0
 11 12  4  0  0  0  0
 12 13  1  0  0  0  0
 13 14  2  0  0  0  0
 13 15  2  0  0  0  0
 13 16  1  0  0  0  0
 16 17  1  0  0  0  0
 17 18  1  0  0  0  0
 18 19  1  0  0  0  0
 16 20  1  0  0  0  0
 20 21  4  0  0  0  0
 21 22  4  0  0  0  0
 22 23  4  0  0  0  0
 23 24  4  0  0  0  0
 20 24  4  0  0  0  0
 24 25  1  0  0  0  0
 25 26  4  0  0  0  0
 26 27  4  0  0  0  0
 27 28  4  0  0  0  0
 28 29  4  0  0  0  0
 29 30  4  0  0  0  0
 25 30  4  0  0  0  0
 12 31  4  0  0  0  0
 31 32  4  0  0  0  0
  9 32  4  0  0  0  0
  8 33  4  0  0  0  0
  4 33  4  0  0  0  0
M  CHG  2   2   1   3  -1
M  END
>  <CdId>
361

>  <Mol Weight>
464.5

>  <Formula>
C23H20N4O5S

>  <Molecule ChEMBL ID>
CHEMBL121048

>  <Molecule Max Phase>
None

>  <Molecular Weight>
464.5

>  <#RO5 Violations>
0

>  <AlogP>
3.64

>  <Compound Key>
18

>  <Standard Type>
IC50

>  <Standard Relation>
'>'

>  <Standard Value>
250000.0

>  <Standard Units>
nM

$$$$

  Mrv2114 03112311372D          

 17 16  0  0  0  0            999 V2000
    0.0000    0.0000    0.0000 Cl  0  0  0  0  0  0  0  0  0  0  0  0
    2.0036    0.0000    0.0000 Cl  0  0  0  0  0  0  0  0  0  0  0  0
   -2.9055   -3.7125    0.0000 N   0  0  0  0  0  0  0  0  0  0  0  0
   -2.1910   -4.1250    0.0000 C   0  0  0  0  0  0  0  0  0  0  0  0
   -1.4766   -3.7125    0.0000 C   0  0  0  0  0  0  0  0  0  0  0  0
   -0.7621   -3.3000    0.0000 C   0  0  0  0  0  0  0  0  0  0  0  0
   -0.0476   -2.8875    0.0000 C   0  0  0  0  0  0  0  0  0  0  0  0
   -0.0476   -2.0625    0.0000 C   0  0  0  0  0  0  0  0  0  0  0  0
    0.6668   -1.6500    0.0000 N   0  0  0  0  0  0  0  0  0  0  0  0
    1.3813   -2.0625    0.0000 C   0  0  0  0  0  0  0  0  0  0  0  0
    1.3813   -2.8875    0.0000 C   0  0  0  0  0  0  0  0  0  0  0  0
    0.6668   -3.3000    0.0000 C   0  0  0  0  0  0  0  0  0  0  0  0
    0.6668   -4.1250    0.0000 C   0  0  0  0  0  0  0  0  0  0  0  0
    1.3343   -4.6099    0.0000 C   0  0  0  0  0  0  0  0  0  0  0  0
    1.0793   -5.3945    0.0000 C   0  0  0  0  0  0  0  0  0  0  0  0
    0.2543   -5.3945    0.0000 C   0  0  0  0  0  0  0  0  0  0  0  0
   -0.0006   -4.6099    0.0000 O   0  0  0  0  0  0  0  0  0  0  0  0
  3  4  1  0  0  0  0
  4  5  1  0  0  0  0
  5  6  3  0  0  0  0
  6  7  1  0  0  0  0
  7  8  4  0  0  0  0
  8  9  4  0  0  0  0
  9 10  4  0  0  0  0
 10 11  4  0  0  0  0
 11 12  4  0  0  0  0
  7 12  4  0  0  0  0
 12 13  1  0  0  0  0
 13 14  4  0  0  0  0
 14 15  4  0  0  0  0
 15 16  4  0  0  0  0
 16 17  4  0  0  0  0
 13 17  4  0  0  0  0
M  END
>  <CdId>
362

>  <Mol Weight>
271.14

>  <Formula>
C12H12Cl2N2O

>  <Molecule ChEMBL ID>
CHEMBL4163694

>  <Molecule Max Phase>
None

>  <Molecular Weight>
271.15

>  <#RO5 Violations>
0

>  <AlogP>
1.65

>  <Compound Key>
4m

>  <Standard Type>
IC50

>  <Standard Relation>
'='

>  <Standard Value>
7500.0

>  <Standard Units>
nM

$$$$

  Mrv2114 03112311372D          

 52 56  0  0  1  0            999 V2000
    2.0224    2.3472    0.0000 C   0  0  0  0  0  0  0  0  0  0  0  0
    1.5852    1.6475    0.0000 C   0  0  0  0  0  0  0  0  0  0  0  0
    1.9726    0.9191    0.0000 C   0  0  0  0  0  0  0  0  0  0  0  0
    1.5354    0.2195    0.0000 C   0  0  1  0  0  0  0  0  0  0  0  0
    0.7109    0.2483    0.0000 N   0  0  0  0  0  0  0  0  0  0  0  0
    0.3236    0.9767    0.0000 C   0  0  0  0  0  0  0  0  0  0  0  0
    0.7607    1.6763    0.0000 O   0  0  0  0  0  0  0  0  0  0  0  0
   -0.5009    1.0055    0.0000 C   0  0  0  0  0  0  0  0  0  0  0  0
   -0.9381    0.3059    0.0000 C   0  0  0  0  0  0  0  0  0  0  0  0
   -1.7626    0.3346    0.0000 N   0  0  0  0  0  0  0  0  0  0  0  0
   -2.1499    1.0631    0.0000 C   0  0  0  0  0  0  0  0  0  0  0  0
   -1.7127    1.7627    0.0000 C   0  0  0  0  0  0  0  0  0  0  0  0
   -0.8883    1.7339    0.0000 C   0  0  0  0  0  0  0  0  0  0  0  0
   -0.4511    2.4336    0.0000 C   0  0  0  0  0  0  0  0  0  0  0  0
   -0.0139    3.1332    0.0000 F   0  0  0  0  0  0  0  0  0  0  0  0
    0.2486    1.9964    0.0000 F   0  0  0  0  0  0  0  0  0  0  0  0
   -1.1507    2.8707    0.0000 F   0  0  0  0  0  0  0  0  0  0  0  0
    0.2737   -0.4514    0.0000 C   0  0  0  0  0  0  0  0  0  0  0  0
    0.6610   -1.1798    0.0000 C   0  0  0  0  0  0  0  0  0  0  0  0
    1.4855   -1.2086    0.0000 C   0  0  0  0  0  0  0  0  0  0  0  0
    1.9227   -0.5090    0.0000 C   0  0  2  0  0  0  0  0  0  0  0  0
    2.6372   -0.9215    0.0000 O   0  0  0  0  0  0  0  0  0  0  0  0
    2.6372   -1.7465    0.0000 C   0  0  0  0  0  0  0  0  0  0  0  0
    3.3046   -2.2314    0.0000 C   0  0  0  0  0  0  0  0  0  0  0  0
    3.0497   -3.0160    0.0000 S   0  0  0  0  0  0  0  0  0  0  0  0
    2.2247   -3.0160    0.0000 C   0  0  0  0  0  0  0  0  0  0  0  0
    1.7397   -3.6834    0.0000 C   0  0  0  0  0  0  0  0  0  0  0  0
    1.2548   -4.3509    0.0000 F   0  0  0  0  0  0  0  0  0  0  0  0
    1.0723   -3.1985    0.0000 F   0  0  0  0  0  0  0  0  0  0  0  0
    2.4072   -4.1684    0.0000 F   0  0  0  0  0  0  0  0  0  0  0  0
    1.9697   -2.2314    0.0000 C   0  0  0  0  0  0  0  0  0  0  0  0
    2.6642   -0.1473    0.0000 C   0  0  0  0  0  0  0  0  0  0  0  0
    2.7217    0.6757    0.0000 O   0  0  0  0  0  0  0  0  0  0  0  0
    3.3481   -0.6086    0.0000 N   0  0  0  0  0  0  0  0  0  0  0  0
    4.0897   -0.2470    0.0000 C   0  0  0  0  0  0  0  0  0  0  0  0
    4.7736   -0.7083    0.0000 C   0  0  0  0  0  0  0  0  0  0  0  0
    4.7161   -1.5313    0.0000 N   0  0  0  0  0  0  0  0  0  0  0  0
    5.4000   -1.9926    0.0000 C   0  0  0  0  0  0  0  0  0  0  0  0
    6.1415   -1.6310    0.0000 C   0  0  0  0  0  0  0  0  0  0  0  0
    6.8255   -2.0923    0.0000 C   0  0  0  0  0  0  0  0  0  0  0  0
    6.7679   -2.9153    0.0000 C   0  0  0  0  0  0  0  0  0  0  0  0
    6.0264   -3.2770    0.0000 C   0  0  0  0  0  0  0  0  0  0  0  0
    5.3425   -2.8156    0.0000 C   0  0  0  0  0  0  0  0  0  0  0  0
    4.6010   -3.1773    0.0000 O   0  0  0  0  0  0  0  0  0  0  0  0
    4.5434   -4.0003    0.0000 C   0  0  0  0  0  0  0  0  0  0  0  0
    3.8019   -4.3619    0.0000 C   0  0  0  0  0  0  0  0  0  0  0  0
    3.7444   -5.1849    0.0000 C   0  0  0  0  0  0  0  0  0  0  0  0
    3.0029   -5.5466    0.0000 C   0  0  0  0  0  0  0  0  0  0  0  0
    2.9453   -6.3696    0.0000 O   0  0  0  0  0  0  0  0  0  0  0  0
    2.3189   -5.0852    0.0000 O   0  0  0  0  0  0  0  0  0  0  0  0
    3.9746   -1.8930    0.0000 C   0  0  0  0  0  0  0  0  0  0  0  0
    3.2906   -1.4316    0.0000 C   0  0  0  0  0  0  0  0  0  0  0  0
  1  2  1  0  0  0  0
  2  3  1  0  0  0  0
  4  3  1  6  0  0  0
  4  5  1  0  0  0  0
  5  6  1  0  0  0  0
  6  7  2  0  0  0  0
  6  8  1  0  0  0  0
  8  9  4  0  0  0  0
  9 10  4  0  0  0  0
 10 11  4  0  0  0  0
 11 12  4  0  0  0  0
 12 13  4  0  0  0  0
  8 13  4  0  0  0  0
 13 14  1  0  0  0  0
 14 15  1  0  0  0  0
 14 16  1  0  0  0  0
 14 17  1  0  0  0  0
  5 18  1  0  0  0  0
 18 19  1  0  0  0  0
 19 20  1  0  0  0  0
 21 20  1  0  0  0  0
  4 21  1  0  0  0  0
 21 22  1  1  0  0  0
 22 23  1  0  0  0  0
 23 24  4  0  0  0  0
 24 25  4  0  0  0  0
 25 26  4  0  0  0  0
 26 27  1  0  0  0  0
 27 28  1  0  0  0  0
 27 29  1  0  0  0  0
 27 30  1  0  0  0  0
 26 31  4  0  0  0  0
 23 31  4  0  0  0  0
 21 32  1  6  0  0  0
 32 33  2  0  0  0  0
 32 34  1  0  0  0  0
 34 35  1  0  0  0  0
 35 36  1  0  0  0  0
 36 37  1  0  0  0  0
 37 38  1  0  0  0  0
 38 39  4  0  0  0  0
 39 40  4  0  0  0  0
 40 41  4  0  0  0  0
 41 42  4  0  0  0  0
 42 43  4  0  0  0  0
 38 43  4  0  0  0  0
 43 44  1  0  0  0  0
 44 45  1  0  0  0  0
 45 46  1  0  0  0  0
 46 47  1  0  0  0  0
 47 48  1  0  0  0  0
 48 49  2  0  0  0  0
 48 50  1  0  0  0  0
 37 51  1  0  0  0  0
 51 52  1  0  0  0  0
 34 52  1  0  0  0  0
M  END
>  <CdId>
363

>  <Mol Weight>
756.76

>  <Formula>
C35H38F6N4O6S

>  <Molecule ChEMBL ID>
CHEMBL3805372

>  <Molecule Max Phase>
None

>  <Molecular Weight>
756.77

>  <#RO5 Violations>
2

>  <AlogP>
7

>  <Compound Key>
21

>  <Standard Type>
IC50

>  <Standard Relation>
'>'

>  <Standard Value>
50000.0

>  <Standard Units>
nM

$$$$

  Mrv2114 03112311372D          

 37 43  0  0  1  0            999 V2000
   -4.5695   -2.0625    0.0000 C   0  0  0  0  0  0  0  0  0  0  0  0
   -3.7445   -2.0625    0.0000 C   0  0  0  0  0  0  0  0  0  0  0  0
   -3.3320   -1.3480    0.0000 N   0  0  0  0  0  0  0  0  0  0  0  0
   -2.5070   -1.3480    0.0000 C   0  0  0  0  0  0  0  0  0  0  0  0
   -2.0945   -2.0625    0.0000 C   0  0  0  0  0  0  0  0  0  0  0  0
   -1.2695   -2.0625    0.0000 C   0  0  0  0  0  0  0  0  0  0  0  0
   -0.7846   -1.3951    0.0000 N   0  0  0  0  0  0  0  0  0  0  0  0
    0.0000   -1.6500    0.0000 C   0  0  0  0  0  0  0  0  0  0  0  0
    0.7145   -1.2375    0.0000 C   0  0  0  0  0  0  0  0  0  0  0  0
    0.7145   -0.4125    0.0000 C   0  0  0  0  0  0  0  0  0  0  0  0
    0.0000   -0.0000    0.0000 C   0  0  0  0  0  0  0  0  0  0  0  0
    0.0000    0.8250    0.0000 C   0  0  0  0  0  0  0  0  0  0  0  0
    0.7145    1.2375    0.0000 C   0  0  0  0  0  0  0  0  0  0  0  0
    1.4289    0.8250    0.0000 C   0  0  0  0  0  0  0  0  0  0  0  0
    1.4289   -0.0000    0.0000 C   0  0  0  0  0  0  0  0  0  0  0  0
    2.0420    1.3770    0.0000 C   0  0  2  0  0  0  0  0  0  0  0  0
    2.6551    1.9291    0.0000 C   0  0  0  0  0  0  0  0  0  0  0  0
    3.3696    1.5166    0.0000 C   0  0  0  0  0  0  0  0  0  0  0  0
    3.1981    0.7096    0.0000 C   0  0  0  0  0  0  0  0  0  0  0  0
    2.3776    0.6234    0.0000 N   0  0  0  0  0  0  0  0  0  0  0  0
    1.9651   -0.0911    0.0000 C   0  0  0  0  0  0  0  0  0  0  0  0
    1.1805   -0.3461    0.0000 O   0  0  0  0  0  0  0  0  0  0  0  0
    2.3776   -0.8056    0.0000 C   0  0  0  0  0  0  0  0  0  0  0  0
    3.0921   -1.2181    0.0000 C   0  0  0  0  0  0  0  0  0  0  0  0
    2.3776   -1.6306    0.0000 C   0  0  0  0  0  0  0  0  0  0  0  0
    1.7065    2.1307    0.0000 C   0  0  0  0  0  0  0  0  0  0  0  0
    2.1190    2.8452    0.0000 O   0  0  0  0  0  0  0  0  0  0  0  0
    0.8860    2.0445    0.0000 N   0  0  0  0  0  0  0  0  0  0  0  0
    0.3340    2.6576    0.0000 C   0  0  0  0  0  0  0  0  0  0  0  0
    1.4289   -1.6500    0.0000 N   0  0  0  0  0  0  0  0  0  0  0  0
    1.4289   -2.4750    0.0000 C   0  0  0  0  0  0  0  0  0  0  0  0
    0.7145   -2.8875    0.0000 N   0  0  0  0  0  0  0  0  0  0  0  0
    0.0000   -2.4750    0.0000 C   0  0  0  0  0  0  0  0  0  0  0  0
   -0.7846   -2.7299    0.0000 N   0  0  0  0  0  0  0  0  0  0  0  0
   -1.0396   -3.5146    0.0000 C   0  0  0  0  0  0  0  0  0  0  0  0
   -2.5070   -2.7770    0.0000 C   0  0  0  0  0  0  0  0  0  0  0  0
   -3.3320   -2.7770    0.0000 N   0  0  0  0  0  0  0  0  0  0  0  0
  1  2  1  0  0  0  0
  2  3  4  0  0  0  0
  3  4  4  0  0  0  0
  4  5  4  0  0  0  0
  5  6  1  0  0  0  0
  6  7  4  0  0  0  0
  7  8  4  0  0  0  0
  8  9  4  0  0  0  0
  9 10  1  0  0  0  0
 10 11  4  0  0  0  0
 11 12  4  0  0  0  0
 12 13  4  0  0  0  0
 13 14  4  0  0  0  0
 14 15  4  0  0  0  0
 10 15  4  0  0  0  0
 16 14  1  0  0  0  0
 16 17  1  0  0  0  0
 17 18  1  0  0  0  0
 18 19  1  0  0  0  0
 19 20  1  0  0  0  0
 16 20  1  1  0  0  0
 20 21  1  0  0  0  0
 21 22  2  0  0  0  0
 21 23  1  0  0  0  0
 23 24  1  0  0  0  0
 24 25  1  0  0  0  0
 23 25  1  0  0  0  0
 16 26  1  0  0  0  0
 26 27  2  0  0  0  0
 26 28  1  0  0  0  0
 13 28  1  0  0  0  0
 28 29  1  0  0  0  0
  9 30  4  0  0  0  0
 30 31  4  0  0  0  0
 31 32  4  0  0  0  0
 32 33  4  0  0  0  0
  8 33  4  0  0  0  0
 33 34  4  0  0  0  0
  6 34  4  0  0  0  0
 34 35  1  0  0  0  0
  5 36  4  0  0  0  0
 36 37  4  0  0  0  0
  2 37  4  0  0  0  0
M  END
>  <CdId>
364

>  <Mol Weight>
494.559

>  <Formula>
C27H26N8O2

>  <Molecule ChEMBL ID>
CHEMBL4776201

>  <Molecule Max Phase>
None

>  <Molecular Weight>
494.56

>  <#RO5 Violations>
0

>  <AlogP>
3

>  <Compound Key>
5d; L-005582321

>  <Standard Type>
IC50

>  <Standard Relation>
'>'

>  <Standard Value>
50000.0

>  <Standard Units>
nM

$$$$

  Mrv2114 03112311372D          

 15 17  0  0  0  0            999 V2000
    1.8408    3.6194    0.0000 C   0  0  0  0  0  0  0  0  0  0  0  0
    1.8139    2.7948    0.0000 C   0  0  0  0  0  0  0  0  0  0  0  0
    0.9967    2.9078    0.0000 C   0  0  0  0  0  0  0  0  0  0  0  0
    2.6367    2.8543    0.0000 C   0  0  0  0  0  0  0  0  0  0  0  0
    2.9476    2.0901    0.0000 N   0  0  0  0  0  0  0  0  0  0  0  0
    3.7566    1.9285    0.0000 C   0  0  0  0  0  0  0  0  0  0  0  0
    4.1346    1.1952    0.0000 C   0  0  0  0  0  0  0  0  0  0  0  0
    3.7971    0.4424    0.0000 N   0  0  0  0  0  0  0  0  0  0  0  0
    2.9981    0.2370    0.0000 C   0  0  0  0  0  0  0  0  0  0  0  0
    2.3393    0.7336    0.0000 C   0  0  0  0  0  0  0  0  0  0  0  0
    1.5624    0.3448    0.0000 C   0  0  0  0  0  0  0  0  0  0  0  0
    0.8617    0.7803    0.0000 C   0  0  0  0  0  0  0  0  0  0  0  0
    0.8886    1.6049    0.0000 C   0  0  0  0  0  0  0  0  0  0  0  0
    1.6162    1.9939    0.0000 C   0  0  0  0  0  0  0  0  0  0  0  0
    2.3168    1.5583    0.0000 C   0  0  0  0  0  0  0  0  0  0  0  0
  1  2  1  0  0  0  0
  2  3  1  0  0  0  0
  2  4  1  0  0  0  0
  4  5  1  0  0  0  0
  5  6  1  0  0  0  0
  6  7  1  0  0  0  0
  7  8  1  0  0  0  0
  8  9  1  0  0  0  0
  9 10  1  0  0  0  0
 10 11  4  0  0  0  0
 11 12  4  0  0  0  0
 12 13  4  0  0  0  0
 13 14  4  0  0  0  0
  2 14  1  0  0  0  0
 14 15  4  0  0  0  0
 10 15  4  0  0  0  0
  5 15  1  0  0  0  0
M  END
>  <CdId>
365

>  <Mol Weight>
202.301

>  <Formula>
C13H18N2

>  <Molecule ChEMBL ID>
CHEMBL4645774

>  <Molecule Max Phase>
None

>  <Molecular Weight>
202.3

>  <#RO5 Violations>
0

>  <AlogP>
1.89

>  <Compound Key>
7s

>  <Standard Type>
IC50

>  <Standard Relation>
'>'

>  <Standard Value>
50000.0

>  <Standard Units>
nM

$$$$

  Mrv2114 03112311372D          

 28 30  0  0  0  0            999 V2000
    2.8579    0.0000    0.0000 C   0  0  0  0  0  0  0  0  0  0  0  0
    3.5724    0.4125    0.0000 C   0  0  0  0  0  0  0  0  0  0  0  0
    4.2868    0.0000    0.0000 C   0  0  0  0  0  0  0  0  0  0  0  0
    5.0013    0.4125    0.0000 C   0  0  0  0  0  0  0  0  0  0  0  0
    5.7158    0.0000    0.0000 N   0  0  0  0  0  0  0  0  0  0  0  0
    6.4302    0.4125    0.0000 C   0  0  0  0  0  0  0  0  0  0  0  0
    6.4302    1.2375    0.0000 N   0  0  0  0  0  0  0  0  0  0  0  0
    7.1447    1.6500    0.0000 C   0  0  0  0  0  0  0  0  0  0  0  0
    7.1447    2.4750    0.0000 N   0  0  0  0  0  0  0  0  0  0  0  0
    7.8592    1.2375    0.0000 N   0  0  0  0  0  0  0  0  0  0  0  0
    7.8592    0.4125    0.0000 C   0  0  0  0  0  0  0  0  0  0  0  0
    8.5737    0.0000    0.0000 C   0  0  0  0  0  0  0  0  0  0  0  0
    8.5737   -0.8250    0.0000 C   0  0  0  0  0  0  0  0  0  0  0  0
    7.8592   -1.2375    0.0000 C   0  0  0  0  0  0  0  0  0  0  0  0
    7.1447   -0.8250    0.0000 C   0  0  0  0  0  0  0  0  0  0  0  0
    6.4302   -1.2375    0.0000 O   0  0  0  0  0  0  0  0  0  0  0  0
    6.4302   -2.0625    0.0000 C   0  0  0  0  0  0  0  0  0  0  0  0
    7.1447   -2.4750    0.0000 C   0  0  0  0  0  0  0  0  0  0  0  0
    7.8592   -2.0625    0.0000 C   0  0  0  0  0  0  0  0  0  0  0  0
    8.5737   -2.4750    0.0000 C   0  0  0  0  0  0  0  0  0  0  0  0
    8.5737   -3.3000    0.0000 C   0  0  0  0  0  0  0  0  0  0  0  0
    9.2881   -3.7125    0.0000 C   0  0  0  0  0  0  0  0  0  0  0  0
   10.0026   -3.3000    0.0000 O   0  0  0  0  0  0  0  0  0  0  0  0
    7.8592   -3.7125    0.0000 C   0  0  0  0  0  0  0  0  0  0  0  0
    7.1447   -3.3000    0.0000 C   0  0  0  0  0  0  0  0  0  0  0  0
    6.4302   -3.7125    0.0000 O   0  0  0  0  0  0  0  0  0  0  0  0
    5.7158   -3.3000    0.0000 C   0  0  0  0  0  0  0  0  0  0  0  0
    7.1447    0.0000    0.0000 C   0  0  0  0  0  0  0  0  0  0  0  0
  1  2  1  0  0  0  0
  2  3  1  0  0  0  0
  3  4  1  0  0  0  0
  4  5  1  0  0  0  0
  5  6  1  0  0  0  0
  6  7  4  0  0  0  0
  7  8  4  0  0  0  0
  8  9  1  0  0  0  0
  8 10  4  0  0  0  0
 10 11  4  0  0  0  0
 11 12  4  0  0  0  0
 12 13  4  0  0  0  0
 13 14  4  0  0  0  0
 14 15  4  0  0  0  0
 15 16  1  0  0  0  0
 16 17  1  0  0  0  0
 17 18  1  0  0  0  0
 18 19  4  0  0  0  0
 19 20  4  0  0  0  0
 20 21  4  0  0  0  0
 21 22  1  0  0  0  0
 22 23  1  0  0  0  0
 21 24  4  0  0  0  0
 24 25  4  0  0  0  0
 18 25  4  0  0  0  0
 25 26  1  0  0  0  0
 26 27  1  0  0  0  0
 15 28  4  0  0  0  0
  6 28  4  0  0  0  0
 11 28  4  0  0  0  0
M  END
>  <CdId>
366

>  <Mol Weight>
382.464

>  <Formula>
C21H26N4O3

>  <Molecule ChEMBL ID>
CHEMBL4213155

>  <Molecule Max Phase>
None

>  <Molecular Weight>
382.46

>  <#RO5 Violations>
0

>  <AlogP>
3.5

>  <Compound Key>
38

>  <Standard Type>
IC50

>  <Standard Relation>
'>'

>  <Standard Value>
10000.0

>  <Standard Units>
nM

$$$$

  Mrv2114 03112311372D          

 18 20  0  0  0  0            999 V2000
    4.0668    2.3479    0.0000 C   0  0  0  0  0  0  0  0  0  0  0  0
    3.3523    1.9354    0.0000 C   0  0  0  0  0  0  0  0  0  0  0  0
    3.3523    1.1104    0.0000 C   0  0  0  0  0  0  0  0  0  0  0  0
    2.6378    0.6979    0.0000 C   0  0  0  0  0  0  0  0  0  0  0  0
    1.9233    1.1104    0.0000 C   0  0  0  0  0  0  0  0  0  0  0  0
    1.1387    0.8555    0.0000 N   0  0  0  0  0  0  0  0  0  0  0  0
    0.6538    1.5229    0.0000 C   0  0  0  0  0  0  0  0  0  0  0  0
   -0.1712    1.5229    0.0000 S   0  0  0  0  0  0  0  0  0  0  0  0
   -0.5837    0.8085    0.0000 C   0  0  0  0  0  0  0  0  0  0  0  0
   -1.4087    0.8085    0.0000 C   0  0  0  0  0  0  0  0  0  0  0  0
   -1.8212    0.0940    0.0000 C   0  0  0  0  0  0  0  0  0  0  0  0
   -2.6462    0.0940    0.0000 C   0  0  0  0  0  0  0  0  0  0  0  0
   -3.0587    0.8085    0.0000 C   0  0  0  0  0  0  0  0  0  0  0  0
   -2.6462    1.5229    0.0000 C   0  0  0  0  0  0  0  0  0  0  0  0
   -1.8212    1.5229    0.0000 N   0  0  0  0  0  0  0  0  0  0  0  0
    1.1387    2.1904    0.0000 N   0  0  0  0  0  0  0  0  0  0  0  0
    1.9233    1.9354    0.0000 C   0  0  0  0  0  0  0  0  0  0  0  0
    2.6378    2.3479    0.0000 C   0  0  0  0  0  0  0  0  0  0  0  0
  1  2  1  0  0  0  0
  2  3  4  0  0  0  0
  3  4  4  0  0  0  0
  4  5  4  0  0  0  0
  5  6  4  0  0  0  0
  6  7  4  0  0  0  0
  7  8  1  0  0  0  0
  8  9  1  0  0  0  0
  9 10  1  0  0  0  0
 10 11  4  0  0  0  0
 11 12  4  0  0  0  0
 12 13  4  0  0  0  0
 13 14  4  0  0  0  0
 14 15  4  0  0  0  0
 10 15  4  0  0  0  0
  7 16  4  0  0  0  0
 16 17  4  0  0  0  0
  5 17  4  0  0  0  0
 17 18  4  0  0  0  0
  2 18  4  0  0  0  0
M  STY  1   1 DAT
M  SAL   1  1   6
M  SDT   1 MRV_IMPLICIT_H                                        
M  SDD   1     0.0000    0.0000    DR    ALL  0       0  
M  SED   1 IMPL_H1
M  END
>  <CdId>
367

>  <Mol Weight>
255.34

>  <Formula>
C14H13N3S

>  <Molecule ChEMBL ID>
CHEMBL2019024

>  <Molecule Max Phase>
None

>  <Molecular Weight>
255.35

>  <#RO5 Violations>
0

>  <AlogP>
3.56

>  <Compound Key>
30

>  <Standard Type>
IC50

>  <Standard Relation>
'>'

>  <Standard Value>
50000.0

>  <Standard Units>
nM

$$$$

  Mrv2114 03112311372D          

 37 42  0  0  0  0            999 V2000
    7.7525   -0.4741    0.0000 C   0  0  0  0  0  0  0  0  0  0  0  0
    7.7525   -1.2991    0.0000 C   0  0  0  0  0  0  0  0  0  0  0  0
    8.4669   -1.7116    0.0000 C   0  0  0  0  0  0  0  0  0  0  0  0
    8.4669   -2.5366    0.0000 C   0  0  0  0  0  0  0  0  0  0  0  0
    7.7525   -2.9491    0.0000 C   0  0  0  0  0  0  0  0  0  0  0  0
    7.7525   -3.7741    0.0000 C   0  0  0  0  0  0  0  0  0  0  0  0
    8.4199   -4.2590    0.0000 N   0  0  0  0  0  0  0  0  0  0  0  0
    8.1650   -5.0437    0.0000 C   0  0  0  0  0  0  0  0  0  0  0  0
    7.3400   -5.0437    0.0000 N   0  0  0  0  0  0  0  0  0  0  0  0
    6.8551   -5.7111    0.0000 C   0  0  0  0  0  0  0  0  0  0  0  0
    7.1906   -6.4648    0.0000 C   0  0  0  0  0  0  0  0  0  0  0  0
    6.7057   -7.1322    0.0000 C   0  0  0  0  0  0  0  0  0  0  0  0
    5.8852   -7.0460    0.0000 C   0  0  0  0  0  0  0  0  0  0  0  0
    5.4003   -7.7134    0.0000 N   0  0  0  0  0  0  0  0  0  0  0  0
    5.7358   -8.4671    0.0000 C   0  0  0  0  0  0  0  0  0  0  0  0
    6.5563   -8.5533    0.0000 N   0  0  0  0  0  0  0  0  0  0  0  0
    6.8919   -9.3070    0.0000 C   0  0  0  0  0  0  0  0  0  0  0  0
    6.4070   -9.9744    0.0000 C   0  0  0  0  0  0  0  0  0  0  0  0
    5.5865   -9.8882    0.0000 C   0  0  0  0  0  0  0  0  0  0  0  0
    5.1016  -10.5556    0.0000 C   0  0  0  0  0  0  0  0  0  0  0  0
    5.4371  -11.3093    0.0000 C   0  0  0  0  0  0  0  0  0  0  0  0
    4.9522  -11.9767    0.0000 C   0  0  0  0  0  0  0  0  0  0  0  0
    4.1317  -11.8905    0.0000 C   0  0  0  0  0  0  0  0  0  0  0  0
    3.7961  -11.1368    0.0000 C   0  0  0  0  0  0  0  0  0  0  0  0
    2.9757  -11.0506    0.0000 N   0  0  0  0  0  0  0  0  0  0  0  0
    2.4907  -11.7180    0.0000 C   0  0  0  0  0  0  0  0  0  0  0  0
    1.6703  -11.6318    0.0000 C   0  0  0  0  0  0  0  0  0  0  0  0
    1.3347  -10.8781    0.0000 O   0  0  0  0  0  0  0  0  0  0  0  0
    1.8196  -10.2107    0.0000 C   0  0  0  0  0  0  0  0  0  0  0  0
    2.6401  -10.2969    0.0000 C   0  0  0  0  0  0  0  0  0  0  0  0
    4.2811  -10.4694    0.0000 C   0  0  0  0  0  0  0  0  0  0  0  0
    5.2509   -9.1345    0.0000 N   0  0  0  0  0  0  0  0  0  0  0  0
    5.5496   -6.2923    0.0000 C   0  0  0  0  0  0  0  0  0  0  0  0
    6.0346   -5.6249    0.0000 C   0  0  0  0  0  0  0  0  0  0  0  0
    7.0850   -4.2590    0.0000 N   0  0  0  0  0  0  0  0  0  0  0  0
    7.0380   -2.5366    0.0000 C   0  0  0  0  0  0  0  0  0  0  0  0
    7.0380   -1.7116    0.0000 N   0  0  0  0  0  0  0  0  0  0  0  0
  1  2  1  0  0  0  0
  2  3  4  0  0  0  0
  3  4  4  0  0  0  0
  4  5  4  0  0  0  0
  5  6  1  0  0  0  0
  6  7  4  0  0  0  0
  7  8  4  0  0  0  0
  8  9  4  0  0  0  0
  9 10  1  0  0  0  0
 10 11  4  0  0  0  0
 11 12  4  0  0  0  0
 12 13  4  0  0  0  0
 13 14  1  0  0  0  0
 14 15  1  0  0  0  0
 15 16  4  0  0  0  0
 16 17  4  0  0  0  0
 17 18  4  0  0  0  0
 18 19  4  0  0  0  0
 19 20  1  0  0  0  0
 20 21  4  0  0  0  0
 21 22  4  0  0  0  0
 22 23  4  0  0  0  0
 23 24  4  0  0  0  0
 24 25  1  0  0  0  0
 25 26  1  0  0  0  0
 26 27  1  0  0  0  0
 27 28  1  0  0  0  0
 28 29  1  0  0  0  0
 29 30  1  0  0  0  0
 25 30  1  0  0  0  0
 24 31  4  0  0  0  0
 20 31  4  0  0  0  0
 19 32  4  0  0  0  0
 15 32  4  0  0  0  0
 13 33  4  0  0  0  0
 33 34  4  0  0  0  0
 10 34  4  0  0  0  0
  9 35  4  0  0  0  0
  6 35  4  0  0  0  0
  5 36  4  0  0  0  0
 36 37  4  0  0  0  0
  2 37  4  0  0  0  0
M  END
>  <CdId>
368

>  <Mol Weight>
490.571

>  <Formula>
C28H26N8O

>  <Molecule ChEMBL ID>
CHEMBL2144409

>  <Molecule Max Phase>
None

>  <Molecular Weight>
490.57

>  <#RO5 Violations>
0

>  <AlogP>
4.67

>  <Compound Key>
16

>  <Standard Type>
IC50

>  <Standard Relation>
'>'

>  <Standard Value>
50000.0

>  <Standard Units>
nM

$$$$

  Mrv2114 03112311372D          

 33 37  0  0  1  0            999 V2000
    2.0300   -5.5585    0.0000 C   0  0  0  0  0  0  0  0  0  0  0  0
    1.4780   -4.9454    0.0000 C   0  0  0  0  0  0  0  0  0  0  0  0
    1.7329   -4.1608    0.0000 C   0  0  0  0  0  0  0  0  0  0  0  0
    2.5399   -3.9893    0.0000 O   0  0  0  0  0  0  0  0  0  0  0  0
    1.1809   -3.5477    0.0000 N   0  0  0  0  0  0  0  0  0  0  0  0
    0.3739   -3.7192    0.0000 C   0  0  0  0  0  0  0  0  0  0  0  0
   -0.1781   -3.1062    0.0000 C   0  0  0  0  0  0  0  0  0  0  0  0
    0.0768   -2.3215    0.0000 C   0  0  0  0  0  0  0  0  0  0  0  0
    0.8838   -2.1500    0.0000 C   0  0  1  0  0  0  0  0  0  0  0  0
    1.1387   -1.3654    0.0000 N   0  0  0  0  0  0  0  0  0  0  0  0
    0.6538   -0.6979    0.0000 N   0  0  0  0  0  0  0  0  0  0  0  0
    1.1387   -0.0305    0.0000 C   0  0  0  0  0  0  0  0  0  0  0  0
    0.8838    0.7541    0.0000 C   0  0  0  0  0  0  0  0  0  0  0  0
    0.0768    0.9256    0.0000 C   0  0  0  0  0  0  0  0  0  0  0  0
   -0.1781    1.7103    0.0000 C   0  0  0  0  0  0  0  0  0  0  0  0
    0.3739    2.3234    0.0000 C   0  0  0  0  0  0  0  0  0  0  0  0
    0.1190    3.1080    0.0000 O   0  0  0  0  0  0  0  0  0  0  0  0
    0.6710    3.7211    0.0000 C   0  0  0  0  0  0  0  0  0  0  0  0
    0.4161    4.5057    0.0000 C   0  0  0  0  0  0  0  0  0  0  0  0
    0.9681    5.1188    0.0000 C   0  0  0  0  0  0  0  0  0  0  0  0
    1.7751    4.9473    0.0000 C   0  0  0  0  0  0  0  0  0  0  0  0
    2.0300    4.1626    0.0000 C   0  0  0  0  0  0  0  0  0  0  0  0
    1.4780    3.5496    0.0000 C   0  0  0  0  0  0  0  0  0  0  0  0
    1.1809    2.1518    0.0000 C   0  0  0  0  0  0  0  0  0  0  0  0
    1.4358    1.3672    0.0000 C   0  0  0  0  0  0  0  0  0  0  0  0
    1.9233   -0.2854    0.0000 C   0  0  0  0  0  0  0  0  0  0  0  0
    2.6378    0.1271    0.0000 C   0  0  0  0  0  0  0  0  0  0  0  0
    2.6378    0.9521    0.0000 N   0  0  0  0  0  0  0  0  0  0  0  0
    3.3523   -0.2854    0.0000 N   0  0  0  0  0  0  0  0  0  0  0  0
    3.3523   -1.1104    0.0000 C   0  0  0  0  0  0  0  0  0  0  0  0
    2.6378   -1.5229    0.0000 N   0  0  0  0  0  0  0  0  0  0  0  0
    1.9233   -1.1104    0.0000 C   0  0  0  0  0  0  0  0  0  0  0  0
    1.4358   -2.7631    0.0000 C   0  0  0  0  0  0  0  0  0  0  0  0
  1  2  2  0  0  0  0
  2  3  1  0  0  0  0
  3  4  2  0  0  0  0
  3  5  1  0  0  0  0
  5  6  1  0  0  0  0
  6  7  1  0  0  0  0
  7  8  1  0  0  0  0
  9  8  1  0  0  0  0
  9 10  1  1  0  0  0
 10 11  4  0  0  0  0
 11 12  4  0  0  0  0
 12 13  1  0  0  0  0
 13 14  4  0  0  0  0
 14 15  4  0  0  0  0
 15 16  4  0  0  0  0
 16 17  1  0  0  0  0
 17 18  1  0  0  0  0
 18 19  4  0  0  0  0
 19 20  4  0  0  0  0
 20 21  4  0  0  0  0
 21 22  4  0  0  0  0
 22 23  4  0  0  0  0
 18 23  4  0  0  0  0
 16 24  4  0  0  0  0
 24 25  4  0  0  0  0
 13 25  4  0  0  0  0
 12 26  4  0  0  0  0
 26 27  4  0  0  0  0
 27 28  1  0  0  0  0
 27 29  4  0  0  0  0
 29 30  4  0  0  0  0
 30 31  4  0  0  0  0
 31 32  4  0  0  0  0
 26 32  4  0  0  0  0
 10 32  4  0  0  0  0
  9 33  1  0  0  0  0
  5 33  1  0  0  0  0
M  END
>  <CdId>
369

>  <Mol Weight>
440.507

>  <Formula>
C25H24N6O2

>  <Molecule ChEMBL ID>
CHEMBL1873475

>  <Molecule Name>
IBRUTINIB

>  <Molecule Max Phase>
4

>  <Molecular Weight>
440.51

>  <#RO5 Violations>
0

>  <AlogP>
4.22

>  <Compound Key>
1

>  <Standard Type>
IC50

>  <Standard Relation>
'='

>  <Standard Value>
7900.0

>  <Standard Units>
nM

$$$$

  Mrv2114 03112311372D          

 22 26  0  0  1  0            999 V2000
    4.1002    0.5350    0.0000 C   0  0  0  0  0  0  0  0  0  0  0  0
    4.4052   -0.2316    0.0000 C   0  0  2  0  0  0  0  0  0  0  0  0
    4.9814    0.3588    0.0000 C   0  0  0  0  0  0  0  0  0  0  0  0
    5.7210   -0.0068    0.0000 C   0  0  0  0  0  0  0  0  0  0  0  0
    5.6018   -0.8232    0.0000 C   0  0  0  0  0  0  0  0  0  0  0  0
    4.7886   -0.9621    0.0000 N   0  0  0  0  0  0  0  0  0  0  0  0
    4.3477   -1.6594    0.0000 C   0  0  0  0  0  0  0  0  0  0  0  0
    3.4790   -1.6478    0.0000 C   0  0  0  0  0  0  0  0  0  0  0  0
    3.1024   -2.3818    0.0000 N   0  0  0  0  0  0  0  0  0  0  0  0
    2.2937   -2.5450    0.0000 N   0  0  0  0  0  0  0  0  0  0  0  0
    1.6619   -2.0145    0.0000 C   0  0  0  0  0  0  0  0  0  0  0  0
    0.9098   -2.3536    0.0000 O   0  0  0  0  0  0  0  0  0  0  0  0
    1.6827   -1.1898    0.0000 C   0  0  0  0  0  0  0  0  0  0  0  0
    0.9145   -0.7839    0.0000 C   0  0  0  0  0  0  0  0  0  0  0  0
    0.8614    0.0393    0.0000 C   0  0  0  0  0  0  0  0  0  0  0  0
    0.1218    0.4049    0.0000 F   0  0  0  0  0  0  0  0  0  0  0  0
    1.5478    0.4970    0.0000 C   0  0  0  0  0  0  0  0  0  0  0  0
    2.2874    0.1314    0.0000 C   0  0  0  0  0  0  0  0  0  0  0  0
    3.0539    0.4364    0.0000 N   0  0  0  0  0  0  0  0  0  0  0  0
    3.5808   -0.1984    0.0000 C   0  0  0  0  0  0  0  0  0  0  0  0
    3.1399   -0.8957    0.0000 C   0  0  0  0  0  0  0  0  0  0  0  0
    2.3405   -0.6919    0.0000 C   0  0  0  0  0  0  0  0  0  0  0  0
  2  1  1  6  0  0  0
  2  3  1  0  0  0  0
  3  4  1  0  0  0  0
  4  5  1  0  0  0  0
  5  6  1  0  0  0  0
  2  6  1  0  0  0  0
  6  7  1  0  0  0  0
  7  8  1  0  0  0  0
  8  9  2  0  0  0  0
  9 10  1  0  0  0  0
 10 11  1  0  0  0  0
 11 12  2  0  0  0  0
 11 13  1  0  0  0  0
 13 14  4  0  0  0  0
 14 15  4  0  0  0  0
 15 16  1  0  0  0  0
 15 17  4  0  0  0  0
 17 18  4  0  0  0  0
 18 19  4  0  0  0  0
 19 20  4  0  0  0  0
  2 20  1  0  0  0  0
 20 21  4  0  0  0  0
  8 21  1  0  0  0  0
 21 22  4  0  0  0  0
 13 22  4  0  0  0  0
 18 22  4  0  0  0  0
M  STY  1   1 DAT
M  SAL   1  1  19
M  SDT   1 MRV_IMPLICIT_H                                        
M  SDD   1     0.0000    0.0000    DR    ALL  0       0  
M  SED   1 IMPL_H1
M  END
>  <CdId>
370

>  <Mol Weight>
298.321

>  <Formula>
C16H15FN4O

>  <Molecule ChEMBL ID>
CHEMBL4112930

>  <Molecule Name>
PAMIPARIB

>  <Molecule Max Phase>
3

>  <Molecular Weight>
298.32

>  <#RO5 Violations>
0

>  <AlogP>
2.08

>  <Compound Key>
139; BGB-290

>  <Standard Type>
IC50

>  <Standard Relation>
'>'

>  <Standard Value>
10000.0

>  <Standard Units>
nM

$$$$

  Mrv2114 03112311372D          

 25 28  0  0  0  0            999 V2000
   -4.2868   -0.0000    0.0000 C   0  0  0  0  0  0  0  0  0  0  0  0
   -4.2868    0.8250    0.0000 C   0  0  0  0  0  0  0  0  0  0  0  0
   -3.5724    1.2375    0.0000 C   0  0  0  0  0  0  0  0  0  0  0  0
   -2.8579    0.8250    0.0000 C   0  0  0  0  0  0  0  0  0  0  0  0
   -2.1434    1.2375    0.0000 C   0  0  0  0  0  0  0  0  0  0  0  0
   -1.4289    0.8250    0.0000 N   0  0  0  0  0  0  0  0  0  0  0  0
   -0.7145    1.2375    0.0000 C   0  0  0  0  0  0  0  0  0  0  0  0
    0.0000    0.8250    0.0000 C   0  0  0  0  0  0  0  0  0  0  0  0
    0.0000   -0.0000    0.0000 N   0  0  0  0  0  0  0  0  0  0  0  0
    0.7145   -0.4125    0.0000 C   0  0  0  0  0  0  0  0  0  0  0  0
    0.7145   -1.2375    0.0000 C   0  0  0  0  0  0  0  0  0  0  0  0
    1.3819   -1.7224    0.0000 N   0  0  0  0  0  0  0  0  0  0  0  0
    1.1270   -2.5070    0.0000 C   0  0  0  0  0  0  0  0  0  0  0  0
    1.6119   -3.1745    0.0000 C   0  0  0  0  0  0  0  0  0  0  0  0
    2.4324   -3.0882    0.0000 C   0  0  0  0  0  0  0  0  0  0  0  0
    2.9173   -3.7557    0.0000 C   0  0  0  0  0  0  0  0  0  0  0  0
    2.5817   -4.5094    0.0000 C   0  0  0  0  0  0  0  0  0  0  0  0
    1.7613   -4.5956    0.0000 C   0  0  0  0  0  0  0  0  0  0  0  0
    1.2763   -3.9282    0.0000 C   0  0  0  0  0  0  0  0  0  0  0  0
    0.3020   -2.5070    0.0000 N   0  0  0  0  0  0  0  0  0  0  0  0
    0.0470   -1.7224    0.0000 O   0  0  0  0  0  0  0  0  0  0  0  0
   -0.7145   -0.4125    0.0000 C   0  0  0  0  0  0  0  0  0  0  0  0
   -1.4289   -0.0000    0.0000 C   0  0  0  0  0  0  0  0  0  0  0  0
   -2.8579   -0.0000    0.0000 C   0  0  0  0  0  0  0  0  0  0  0  0
   -3.5724   -0.4125    0.0000 C   0  0  0  0  0  0  0  0  0  0  0  0
  1  2  4  0  0  0  0
  2  3  4  0  0  0  0
  3  4  4  0  0  0  0
  4  5  1  0  0  0  0
  5  6  1  0  0  0  0
  6  7  1  0  0  0  0
  7  8  1  0  0  0  0
  8  9  1  0  0  0  0
  9 10  1  0  0  0  0
 10 11  1  0  0  0  0
 11 12  4  0  0  0  0
 12 13  4  0  0  0  0
 13 14  1  0  0  0  0
 14 15  4  0  0  0  0
 15 16  4  0  0  0  0
 16 17  4  0  0  0  0
 17 18  4  0  0  0  0
 18 19  4  0  0  0  0
 14 19  4  0  0  0  0
 13 20  4  0  0  0  0
 20 21  4  0  0  0  0
 11 21  4  0  0  0  0
  9 22  1  0  0  0  0
 22 23  1  0  0  0  0
  6 23  1  0  0  0  0
  4 24  4  0  0  0  0
 24 25  4  0  0  0  0
  1 25  4  0  0  0  0
M  END
>  <CdId>
371

>  <Mol Weight>
334.423

>  <Formula>
C20H22N4O

>  <Molecule ChEMBL ID>
CHEMBL2069921

>  <Molecule Max Phase>
None

>  <Molecular Weight>
334.42

>  <#RO5 Violations>
0

>  <AlogP>
3.05

>  <Compound Key>
27

>  <Standard Type>
IC50

>  <Standard Relation>
'>'

>  <Standard Value>
20000.0

>  <Standard Units>
nM

$$$$

  Mrv2114 03112311372D          

 43 48  0  0  0  0            999 V2000
   -7.8592    0.4125    0.0000 C   0  0  0  0  0  0  0  0  0  0  0  0
   -7.1447    0.8250    0.0000 N   0  0  0  0  0  0  0  0  0  0  0  0
   -6.4302    0.4125    0.0000 C   0  0  0  0  0  0  0  0  0  0  0  0
   -6.4302   -0.4125    0.0000 C   0  0  0  0  0  0  0  0  0  0  0  0
   -5.7158    0.8250    0.0000 C   0  0  0  0  0  0  0  0  0  0  0  0
   -5.7158    1.6500    0.0000 O   0  0  0  0  0  0  0  0  0  0  0  0
   -5.0013    0.4125    0.0000 N   0  0  0  0  0  0  0  0  0  0  0  0
   -4.2868    0.8250    0.0000 C   0  0  0  0  0  0  0  0  0  0  0  0
   -4.2868    1.6500    0.0000 C   0  0  0  0  0  0  0  0  0  0  0  0
   -3.5724    2.0625    0.0000 C   0  0  0  0  0  0  0  0  0  0  0  0
   -2.8579    1.6500    0.0000 C   0  0  0  0  0  0  0  0  0  0  0  0
   -2.1434    2.0625    0.0000 C   0  0  0  0  0  0  0  0  0  0  0  0
   -2.0572    2.8830    0.0000 C   0  0  0  0  0  0  0  0  0  0  0  0
   -2.6703    3.4350    0.0000 C   0  0  0  0  0  0  0  0  0  0  0  0
   -3.4549    3.1801    0.0000 C   0  0  0  0  0  0  0  0  0  0  0  0
   -4.0680    3.7321    0.0000 C   0  0  0  0  0  0  0  0  0  0  0  0
   -3.8965    4.5391    0.0000 N   0  0  0  0  0  0  0  0  0  0  0  0
   -3.1118    4.7940    0.0000 C   0  0  0  0  0  0  0  0  0  0  0  0
   -2.4987    4.2420    0.0000 C   0  0  0  0  0  0  0  0  0  0  0  0
   -1.2502    3.0545    0.0000 N   0  0  0  0  0  0  0  0  0  0  0  0
   -0.8377    2.3400    0.0000 C   0  0  0  0  0  0  0  0  0  0  0  0
   -0.0307    2.1685    0.0000 C   0  0  0  0  0  0  0  0  0  0  0  0
    0.2242    1.3839    0.0000 C   0  0  0  0  0  0  0  0  0  0  0  0
    1.0312    1.2124    0.0000 C   0  0  0  0  0  0  0  0  0  0  0  0
   -0.3278    0.7708    0.0000 C   0  0  0  0  0  0  0  0  0  0  0  0
   -1.1348    0.9423    0.0000 C   0  0  0  0  0  0  0  0  0  0  0  0
   -1.3897    1.7269    0.0000 N   0  0  0  0  0  0  0  0  0  0  0  0
   -2.8579    0.8250    0.0000 C   0  0  0  0  0  0  0  0  0  0  0  0
   -2.1434    0.4125    0.0000 C   0  0  0  0  0  0  0  0  0  0  0  0
   -1.4289    0.0000    0.0000 C   0  0  0  0  0  0  0  0  0  0  0  0
   -0.7145   -0.4125    0.0000 C   0  0  0  0  0  0  0  0  0  0  0  0
   -0.7145   -1.2375    0.0000 C   0  0  0  0  0  0  0  0  0  0  0  0
    0.0000   -1.6500    0.0000 C   0  0  0  0  0  0  0  0  0  0  0  0
    0.7145   -1.2375    0.0000 C   0  0  0  0  0  0  0  0  0  0  0  0
    0.7145   -0.4125    0.0000 C   0  0  0  0  0  0  0  0  0  0  0  0
    1.4289   -0.0000    0.0000 C   0  0  0  0  0  0  0  0  0  0  0  0
    2.1434   -0.4125    0.0000 C   0  0  0  0  0  0  0  0  0  0  0  0
    2.1434   -1.2375    0.0000 C   0  0  0  0  0  0  0  0  0  0  0  0
    2.8579   -1.6500    0.0000 O   0  0  0  0  0  0  0  0  0  0  0  0
    1.4289   -1.6500    0.0000 N   0  0  0  0  0  0  0  0  0  0  0  0
    1.4289   -2.4750    0.0000 C   0  0  0  0  0  0  0  0  0  0  0  0
    0.0000   -0.0000    0.0000 C   0  0  0  0  0  0  0  0  0  0  0  0
   -3.5724    0.4125    0.0000 N   0  0  0  0  0  0  0  0  0  0  0  0
  1  2  1  0  0  0  0
  2  3  1  0  0  0  0
  3  4  1  0  0  0  0
  3  5  1  0  0  0  0
  5  6  2  0  0  0  0
  5  7  1  0  0  0  0
  7  8  1  0  0  0  0
  8  9  4  0  0  0  0
  9 10  4  0  0  0  0
 10 11  4  0  0  0  0
 11 12  1  0  0  0  0
 12 13  4  0  0  0  0
 13 14  1  0  0  0  0
 14 15  4  0  0  0  0
 15 16  4  0  0  0  0
 16 17  4  0  0  0  0
 17 18  4  0  0  0  0
 18 19  4  0  0  0  0
 14 19  4  0  0  0  0
 13 20  4  0  0  0  0
 20 21  4  0  0  0  0
 21 22  4  0  0  0  0
 22 23  4  0  0  0  0
 23 24  1  0  0  0  0
 23 25  4  0  0  0  0
 25 26  4  0  0  0  0
 26 27  4  0  0  0  0
 12 27  4  0  0  0  0
 21 27  4  0  0  0  0
 11 28  4  0  0  0  0
 28 29  1  0  0  0  0
 29 30  3  0  0  0  0
 30 31  1  0  0  0  0
 31 32  4  0  0  0  0
 32 33  4  0  0  0  0
 33 34  4  0  0  0  0
 34 35  4  0  0  0  0
 35 36  4  0  0  0  0
 36 37  4  0  0  0  0
 37 38  4  0  0  0  0
 38 39  2  0  0  0  0
 38 40  4  0  0  0  0
 34 40  4  0  0  0  0
 40 41  1  0  0  0  0
 35 42  4  0  0  0  0
 31 42  4  0  0  0  0
 28 43  4  0  0  0  0
  8 43  4  0  0  0  0
M  END
>  <CdId>
372

>  <Mol Weight>
567.653

>  <Formula>
C34H29N7O2

>  <Molecule ChEMBL ID>
CHEMBL3934839

>  <Molecule Max Phase>
None

>  <Molecular Weight>
567.65

>  <#RO5 Violations>
1

>  <AlogP>
4.56

>  <Compound Key>
BDBM253987

>  <Standard Type>
IC50

>  <Standard Relation>
'='

>  <Standard Value>
1200.0

>  <Standard Units>
nM

$$$$

  Mrv2114 03112311372D          

 45 50  0  0  1  0            999 V2000
   -6.4302   -2.0625    0.0000 C   0  0  0  0  0  0  0  0  0  0  0  0
   -5.7158   -1.6500    0.0000 N   0  0  0  0  0  0  0  0  0  0  0  0
   -5.7158   -0.8250    0.0000 C   0  0  1  0  0  0  0  0  0  0  0  0
   -6.4302   -0.4125    0.0000 C   0  0  0  0  0  0  0  0  0  0  0  0
   -5.0013   -0.4125    0.0000 C   0  0  0  0  0  0  0  0  0  0  0  0
   -4.2868   -0.8250    0.0000 O   0  0  0  0  0  0  0  0  0  0  0  0
   -5.0013    0.4125    0.0000 N   0  0  0  0  0  0  0  0  0  0  0  0
   -4.2868    0.8250    0.0000 C   0  0  0  0  0  0  0  0  0  0  0  0
   -4.2868    1.6500    0.0000 C   0  0  0  0  0  0  0  0  0  0  0  0
   -3.5724    2.0625    0.0000 C   0  0  0  0  0  0  0  0  0  0  0  0
   -2.8579    1.6500    0.0000 C   0  0  0  0  0  0  0  0  0  0  0  0
   -2.1434    2.0625    0.0000 C   0  0  0  0  0  0  0  0  0  0  0  0
   -2.0572    2.8830    0.0000 C   0  0  0  0  0  0  0  0  0  0  0  0
   -2.6703    3.4350    0.0000 C   0  0  0  0  0  0  0  0  0  0  0  0
   -3.4549    3.1801    0.0000 C   0  0  0  0  0  0  0  0  0  0  0  0
   -4.0680    3.7321    0.0000 C   0  0  0  0  0  0  0  0  0  0  0  0
   -3.8965    4.5391    0.0000 C   0  0  0  0  0  0  0  0  0  0  0  0
   -4.5096    5.0911    0.0000 O   0  0  0  0  0  0  0  0  0  0  0  0
   -4.3380    5.8981    0.0000 C   0  0  0  0  0  0  0  0  0  0  0  0
   -3.1118    4.7940    0.0000 N   0  0  0  0  0  0  0  0  0  0  0  0
   -2.4987    4.2420    0.0000 C   0  0  0  0  0  0  0  0  0  0  0  0
   -1.2502    3.0545    0.0000 N   0  0  0  0  0  0  0  0  0  0  0  0
   -0.8377    2.3400    0.0000 C   0  0  0  0  0  0  0  0  0  0  0  0
   -0.0307    2.1685    0.0000 C   0  0  0  0  0  0  0  0  0  0  0  0
    0.2242    1.3839    0.0000 C   0  0  0  0  0  0  0  0  0  0  0  0
    1.0312    1.2124    0.0000 C   0  0  0  0  0  0  0  0  0  0  0  0
   -0.3278    0.7708    0.0000 C   0  0  0  0  0  0  0  0  0  0  0  0
   -1.1348    0.9423    0.0000 C   0  0  0  0  0  0  0  0  0  0  0  0
   -1.3897    1.7269    0.0000 N   0  0  0  0  0  0  0  0  0  0  0  0
   -2.8579    0.8250    0.0000 C   0  0  0  0  0  0  0  0  0  0  0  0
   -2.1434    0.4125    0.0000 C   0  0  0  0  0  0  0  0  0  0  0  0
   -1.4289    0.0000    0.0000 C   0  0  0  0  0  0  0  0  0  0  0  0
   -0.7145   -0.4125    0.0000 C   0  0  0  0  0  0  0  0  0  0  0  0
   -0.7145   -1.2375    0.0000 C   0  0  0  0  0  0  0  0  0  0  0  0
    0.0000   -1.6500    0.0000 C   0  0  0  0  0  0  0  0  0  0  0  0
    0.7145   -1.2375    0.0000 C   0  0  0  0  0  0  0  0  0  0  0  0
    0.7145   -0.4125    0.0000 C   0  0  0  0  0  0  0  0  0  0  0  0
    1.4289   -0.0000    0.0000 C   0  0  0  0  0  0  0  0  0  0  0  0
    2.1434   -0.4125    0.0000 C   0  0  0  0  0  0  0  0  0  0  0  0
    2.1434   -1.2375    0.0000 C   0  0  0  0  0  0  0  0  0  0  0  0
    2.8579   -1.6500    0.0000 O   0  0  0  0  0  0  0  0  0  0  0  0
    1.4289   -1.6500    0.0000 N   0  0  0  0  0  0  0  0  0  0  0  0
    1.4289   -2.4750    0.0000 C   0  0  0  0  0  0  0  0  0  0  0  0
    0.0000   -0.0000    0.0000 C   0  0  0  0  0  0  0  0  0  0  0  0
   -3.5724    0.4125    0.0000 N   0  0  0  0  0  0  0  0  0  0  0  0
  1  2  1  0  0  0  0
  3  2  1  0  0  0  0
  3  4  1  1  0  0  0
  3  5  1  0  0  0  0
  5  6  2  0  0  0  0
  5  7  1  0  0  0  0
  7  8  1  0  0  0  0
  8  9  4  0  0  0  0
  9 10  4  0  0  0  0
 10 11  4  0  0  0  0
 11 12  1  0  0  0  0
 12 13  4  0  0  0  0
 13 14  1  0  0  0  0
 14 15  4  0  0  0  0
 15 16  4  0  0  0  0
 16 17  4  0  0  0  0
 17 18  1  0  0  0  0
 18 19  1  0  0  0  0
 17 20  4  0  0  0  0
 20 21  4  0  0  0  0
 14 21  4  0  0  0  0
 13 22  4  0  0  0  0
 22 23  4  0  0  0  0
 23 24  4  0  0  0  0
 24 25  4  0  0  0  0
 25 26  1  0  0  0  0
 25 27  4  0  0  0  0
 27 28  4  0  0  0  0
 28 29  4  0  0  0  0
 12 29  4  0  0  0  0
 23 29  4  0  0  0  0
 11 30  4  0  0  0  0
 30 31  1  0  0  0  0
 31 32  3  0  0  0  0
 32 33  1  0  0  0  0
 33 34  4  0  0  0  0
 34 35  4  0  0  0  0
 35 36  4  0  0  0  0
 36 37  4  0  0  0  0
 37 38  4  0  0  0  0
 38 39  4  0  0  0  0
 39 40  4  0  0  0  0
 40 41  2  0  0  0  0
 40 42  4  0  0  0  0
 36 42  4  0  0  0  0
 42 43  1  0  0  0  0
 37 44  4  0  0  0  0
 33 44  4  0  0  0  0
 30 45  4  0  0  0  0
  8 45  4  0  0  0  0
M  END
>  <CdId>
373

>  <Mol Weight>
597.679

>  <Formula>
C35H31N7O3

>  <Molecule ChEMBL ID>
CHEMBL3929505

>  <Molecule Max Phase>
None

>  <Molecular Weight>
597.68

>  <#RO5 Violations>
1

>  <AlogP>
4.57

>  <Compound Key>
BDBM254004

>  <Standard Type>
IC50

>  <Standard Relation>
'>'

>  <Standard Value>
50000.0

>  <Standard Units>
nM

$$$$

  Mrv2114 03112311372D          

 25 27  0  0  0  0            999 V2000
    5.0013    2.8875    0.0000 C   0  0  0  0  0  0  0  0  0  0  0  0
    4.2868    2.4750    0.0000 C   0  0  0  0  0  0  0  0  0  0  0  0
    4.2868    1.6500    0.0000 C   0  0  0  0  0  0  0  0  0  0  0  0
    3.5724    1.2375    0.0000 C   0  0  0  0  0  0  0  0  0  0  0  0
    3.5724    0.4125    0.0000 C   0  0  0  0  0  0  0  0  0  0  0  0
    2.8579   -0.0000    0.0000 C   0  0  0  0  0  0  0  0  0  0  0  0
    2.1434    0.4125    0.0000 C   0  0  0  0  0  0  0  0  0  0  0  0
    1.4289   -0.0000    0.0000 S   0  0  0  0  0  0  0  0  0  0  0  0
    1.0164    0.7145    0.0000 O   0  0  0  0  0  0  0  0  0  0  0  0
    1.8414   -0.7145    0.0000 O   0  0  0  0  0  0  0  0  0  0  0  0
    0.7145   -0.4125    0.0000 N   0  0  0  0  0  0  0  0  0  0  0  0
    0.0000   -0.0000    0.0000 C   0  0  0  0  0  0  0  0  0  0  0  0
    0.7145   -1.2375    0.0000 C   0  0  0  0  0  0  0  0  0  0  0  0
    1.3819   -1.7224    0.0000 C   0  0  0  0  0  0  0  0  0  0  0  0
    1.1270   -2.5070    0.0000 C   0  0  0  0  0  0  0  0  0  0  0  0
    0.3020   -2.5070    0.0000 N   0  0  0  0  0  0  0  0  0  0  0  0
    0.0470   -1.7224    0.0000 N   0  0  0  0  0  0  0  0  0  0  0  0
   -0.7376   -1.4675    0.0000 C   0  0  0  0  0  0  0  0  0  0  0  0
   -1.3507   -2.0195    0.0000 C   0  0  0  0  0  0  0  0  0  0  0  0
   -2.1353   -1.7646    0.0000 C   0  0  0  0  0  0  0  0  0  0  0  0
   -2.3068   -0.9576    0.0000 C   0  0  0  0  0  0  0  0  0  0  0  0
   -1.6937   -0.4056    0.0000 C   0  0  0  0  0  0  0  0  0  0  0  0
   -0.9091   -0.6605    0.0000 C   0  0  0  0  0  0  0  0  0  0  0  0
    2.1434    1.2375    0.0000 C   0  0  0  0  0  0  0  0  0  0  0  0
    2.8579    1.6500    0.0000 C   0  0  0  0  0  0  0  0  0  0  0  0
  1  2  2  0  0  0  0
  2  3  1  0  0  0  0
  3  4  1  0  0  0  0
  4  5  4  0  0  0  0
  5  6  4  0  0  0  0
  6  7  4  0  0  0  0
  7  8  1  0  0  0  0
  8  9  2  0  0  0  0
  8 10  2  0  0  0  0
  8 11  1  0  0  0  0
 11 12  1  0  0  0  0
 11 13  1  0  0  0  0
 13 14  4  0  0  0  0
 14 15  4  0  0  0  0
 15 16  4  0  0  0  0
 16 17  4  0  0  0  0
 13 17  4  0  0  0  0
 17 18  1  0  0  0  0
 18 19  4  0  0  0  0
 19 20  4  0  0  0  0
 20 21  4  0  0  0  0
 21 22  4  0  0  0  0
 22 23  4  0  0  0  0
 18 23  4  0  0  0  0
  7 24  4  0  0  0  0
 24 25  4  0  0  0  0
  4 25  4  0  0  0  0
M  END
>  <CdId>
374

>  <Mol Weight>
353.44

>  <Formula>
C19H19N3O2S

>  <Molecule ChEMBL ID>
CHEMBL333704

>  <Molecule Max Phase>
None

>  <Molecular Weight>
353.45

>  <#RO5 Violations>
0

>  <AlogP>
3.43

>  <Compound Key>
21

>  <Standard Type>
IC50

>  <Standard Relation>
'='

>  <Standard Value>
20000.0

>  <Standard Units>
nM

$$$$

  Mrv2114 03112311372D          

 33 36  0  0  0  0            999 V2000
   -1.4289   -0.0000    0.0000 C   0  0  0  0  0  0  0  0  0  0  0  0
   -0.7145   -0.4125    0.0000 O   0  0  0  0  0  0  0  0  0  0  0  0
   -0.7145   -1.2375    0.0000 C   0  0  0  0  0  0  0  0  0  0  0  0
    0.0000   -1.6500    0.0000 C   0  0  0  0  0  0  0  0  0  0  0  0
    0.0000   -2.4750    0.0000 C   0  0  0  0  0  0  0  0  0  0  0  0
   -0.7145   -2.8875    0.0000 C   0  0  0  0  0  0  0  0  0  0  0  0
   -0.7145   -3.7125    0.0000 C   0  0  0  0  0  0  0  0  0  0  0  0
   -1.4289   -4.1250    0.0000 N   0  0  0  0  0  0  0  0  0  0  0  0
   -1.4289   -4.9500    0.0000 C   0  0  0  0  0  0  0  0  0  0  0  0
   -0.7145   -5.3625    0.0000 O   0  0  0  0  0  0  0  0  0  0  0  0
   -2.1434   -5.3625    0.0000 C   0  0  0  0  0  0  0  0  0  0  0  0
   -2.1434   -6.1875    0.0000 C   0  0  0  0  0  0  0  0  0  0  0  0
   -2.8579   -6.6000    0.0000 N   0  0  0  0  0  0  0  0  0  0  0  0
   -3.5724   -6.1875    0.0000 C   0  0  0  0  0  0  0  0  0  0  0  0
   -4.2868   -6.6000    0.0000 C   0  0  0  0  0  0  0  0  0  0  0  0
   -4.2868   -7.4250    0.0000 C   0  0  0  0  0  0  0  0  0  0  0  0
   -5.0013   -7.8375    0.0000 C   0  0  0  0  0  0  0  0  0  0  0  0
   -5.7158   -7.4250    0.0000 C   0  0  0  0  0  0  0  0  0  0  0  0
   -5.7158   -6.6000    0.0000 N   0  0  0  0  0  0  0  0  0  0  0  0
   -5.0013   -6.1875    0.0000 N   0  0  0  0  0  0  0  0  0  0  0  0
   -3.5724   -5.3625    0.0000 N   0  0  0  0  0  0  0  0  0  0  0  0
   -2.8579   -4.9500    0.0000 C   0  0  0  0  0  0  0  0  0  0  0  0
   -2.8579   -4.1250    0.0000 O   0  0  0  0  0  0  0  0  0  0  0  0
   -0.0000   -4.1250    0.0000 C   0  0  0  0  0  0  0  0  0  0  0  0
    0.7145   -3.7125    0.0000 C   0  0  0  0  0  0  0  0  0  0  0  0
    1.4289   -4.1250    0.0000 C   0  0  0  0  0  0  0  0  0  0  0  0
    1.4289   -4.9500    0.0000 C   0  0  0  0  0  0  0  0  0  0  0  0
    2.1434   -5.3625    0.0000 O   0  0  0  0  0  0  0  0  0  0  0  0
    2.1434   -6.1875    0.0000 C   0  0  0  0  0  0  0  0  0  0  0  0
    0.7145   -5.3625    0.0000 C   0  0  0  0  0  0  0  0  0  0  0  0
   -0.0000   -4.9500    0.0000 C   0  0  0  0  0  0  0  0  0  0  0  0
   -1.4289   -2.4750    0.0000 C   0  0  0  0  0  0  0  0  0  0  0  0
   -1.4289   -1.6500    0.0000 C   0  0  0  0  0  0  0  0  0  0  0  0
  1  2  1  0  0  0  0
  2  3  1  0  0  0  0
  3  4  4  0  0  0  0
  4  5  4  0  0  0  0
  5  6  4  0  0  0  0
  6  7  1  0  0  0  0
  7  8  1  0  0  0  0
  8  9  1  0  0  0  0
  9 10  2  0  0  0  0
  9 11  1  0  0  0  0
 11 12  4  0  0  0  0
 12 13  4  0  0  0  0
 13 14  4  0  0  0  0
 14 15  1  0  0  0  0
 15 16  4  0  0  0  0
 16 17  4  0  0  0  0
 17 18  4  0  0  0  0
 18 19  4  0  0  0  0
 19 20  4  0  0  0  0
 15 20  4  0  0  0  0
 14 21  4  0  0  0  0
 21 22  4  0  0  0  0
 11 22  4  0  0  0  0
 22 23  1  0  0  0  0
  7 24  1  0  0  0  0
 24 25  4  0  0  0  0
 25 26  4  0  0  0  0
 26 27  4  0  0  0  0
 27 28  1  0  0  0  0
 28 29  1  0  0  0  0
 27 30  4  0  0  0  0
 30 31  4  0  0  0  0
 24 31  4  0  0  0  0
  6 32  4  0  0  0  0
 32 33  4  0  0  0  0
  3 33  4  0  0  0  0
M  END
>  <CdId>
375

>  <Mol Weight>
443.463

>  <Formula>
C24H21N5O4

>  <Molecule ChEMBL ID>
CHEMBL4783524

>  <Molecule Max Phase>
None

>  <Molecular Weight>
443.46

>  <#RO5 Violations>
0

>  <AlogP>
3.18

>  <Compound Key>
28; MK-8617

>  <Standard Type>
IC50

>  <Standard Relation>
'='

>  <Standard Value>
1600.0

>  <Standard Units>
nM

$$$$

  Mrv2114 03112311372D          

 29 32  0  0  1  0            999 V2000
    0.7145   -5.3625    0.0000 C   0  0  0  0  0  0  0  0  0  0  0  0
    1.4289   -4.9500    0.0000 C   0  0  1  0  0  0  0  0  0  0  0  0
    2.1434   -5.3625    0.0000 N   0  0  0  0  0  0  0  0  0  0  0  0
    2.1434   -6.1875    0.0000 C   0  0  0  0  0  0  0  0  0  0  0  0
    1.4289   -6.6000    0.0000 O   0  0  0  0  0  0  0  0  0  0  0  0
    2.8579   -6.6000    0.0000 C   0  0  0  0  0  0  0  0  0  0  0  0
    3.5724   -6.1875    0.0000 C   0  0  0  0  0  0  0  0  0  0  0  0
    4.2868   -6.6000    0.0000 C   0  0  0  0  0  0  0  0  0  0  0  0
    4.2868   -7.4250    0.0000 C   0  0  0  0  0  0  0  0  0  0  0  0
    5.0013   -7.8375    0.0000 Cl  0  0  0  0  0  0  0  0  0  0  0  0
    3.5724   -7.8375    0.0000 C   0  0  0  0  0  0  0  0  0  0  0  0
    2.8579   -7.4250    0.0000 C   0  0  0  0  0  0  0  0  0  0  0  0
    1.4289   -4.1250    0.0000 C   0  0  1  0  0  0  0  0  0  0  0  0
    0.7145   -3.7125    0.0000 C   0  0  0  0  0  0  0  0  0  0  0  0
    0.7145   -2.8875    0.0000 C   0  0  0  0  0  0  0  0  0  0  0  0
    1.4289   -2.4750    0.0000 C   0  0  1  0  0  0  0  0  0  0  0  0
    1.4289   -1.6500    0.0000 C   0  0  0  0  0  0  0  0  0  0  0  0
    0.7145   -1.2375    0.0000 C   0  0  0  0  0  0  0  0  0  0  0  0
    0.7145   -0.4125    0.0000 C   0  0  0  0  0  0  0  0  0  0  0  0
    1.4289    0.0000    0.0000 N   0  0  0  0  0  0  0  0  0  0  0  0
    2.1434   -0.4125    0.0000 C   0  0  0  0  0  0  0  0  0  0  0  0
    2.8579    0.0000    0.0000 C   0  0  0  0  0  0  0  0  0  0  0  0
    3.5724   -0.4125    0.0000 C   0  0  0  0  0  0  0  0  0  0  0  0
    3.5724   -1.2375    0.0000 C   0  0  0  0  0  0  0  0  0  0  0  0
    4.2868   -1.6500    0.0000 F   0  0  0  0  0  0  0  0  0  0  0  0
    2.8579   -1.6500    0.0000 C   0  0  0  0  0  0  0  0  0  0  0  0
    2.1434   -1.2375    0.0000 C   0  0  0  0  0  0  0  0  0  0  0  0
    2.1434   -2.8875    0.0000 C   0  0  0  0  0  0  0  0  0  0  0  0
    2.1434   -3.7125    0.0000 C   0  0  0  0  0  0  0  0  0  0  0  0
  2  1  1  6  0  0  0
  2  3  1  0  0  0  0
  3  4  1  0  0  0  0
  4  5  2  0  0  0  0
  4  6  1  0  0  0  0
  6  7  4  0  0  0  0
  7  8  4  0  0  0  0
  8  9  4  0  0  0  0
  9 10  1  0  0  0  0
  9 11  4  0  0  0  0
 11 12  4  0  0  0  0
  6 12  4  0  0  0  0
  2 13  1  0  0  0  0
 13 14  1  1  0  0  0
 14 15  1  0  0  0  0
 16 15  1  0  0  0  0
 16 17  1  1  0  0  0
 17 18  4  0  0  0  0
 18 19  4  0  0  0  0
 19 20  4  0  0  0  0
 20 21  4  0  0  0  0
 21 22  4  0  0  0  0
 22 23  4  0  0  0  0
 23 24  4  0  0  0  0
 24 25  1  0  0  0  0
 24 26  4  0  0  0  0
 26 27  4  0  0  0  0
 21 27  4  0  0  0  0
 17 27  4  0  0  0  0
 16 28  1  0  0  0  0
 28 29  1  0  0  0  0
 13 29  1  0  0  0  0
M  END
>  <CdId>
376

>  <Mol Weight>
410.92

>  <Formula>
C24H24ClFN2O

>  <Molecule ChEMBL ID>
CHEMBL4786690

>  <Molecule Max Phase>
None

>  <Molecular Weight>
410.92

>  <#RO5 Violations>
1

>  <AlogP>
6.12

>  <Compound Key>
2; BMS-986242

>  <Standard Type>
IC50

>  <Standard Relation>
'='

>  <Standard Value>
1390.0

>  <Standard Units>
nM

$$$$

  Mrv2114 03112311372D          

 33 36  0  0  0  0            999 V2000
    6.1412    2.3370    0.0000 C   0  0  0  0  0  0  0  0  0  0  0  0
    5.5282    1.7850    0.0000 C   0  0  0  0  0  0  0  0  0  0  0  0
    4.9761    2.3981    0.0000 C   0  0  0  0  0  0  0  0  0  0  0  0
    6.0802    1.1719    0.0000 C   0  0  0  0  0  0  0  0  0  0  0  0
    4.9151    1.2330    0.0000 N   0  0  0  0  0  0  0  0  0  0  0  0
    4.1081    1.4045    0.0000 N   0  0  0  0  0  0  0  0  0  0  0  0
    3.6956    0.6900    0.0000 N   0  0  0  0  0  0  0  0  0  0  0  0
    4.2476    0.0769    0.0000 N   0  0  0  0  0  0  0  0  0  0  0  0
    5.0013    0.4125    0.0000 C   0  0  0  0  0  0  0  0  0  0  0  0
    5.7158    0.0000    0.0000 C   0  0  0  0  0  0  0  0  0  0  0  0
    6.4302    0.4125    0.0000 N   0  0  0  0  0  0  0  0  0  0  0  0
    7.1447    0.0000    0.0000 C   0  0  0  0  0  0  0  0  0  0  0  0
    7.8592    0.4125    0.0000 C   0  0  0  0  0  0  0  0  0  0  0  0
    8.5737    0.0000    0.0000 N   0  0  0  0  0  0  0  0  0  0  0  0
    9.2881    0.4125    0.0000 C   0  0  0  0  0  0  0  0  0  0  0  0
    9.2881    1.2375    0.0000 C   0  0  0  0  0  0  0  0  0  0  0  0
   10.0026    1.6500    0.0000 C   0  0  0  0  0  0  0  0  0  0  0  0
   10.7171    1.2375    0.0000 N   0  0  0  0  0  0  0  0  0  0  0  0
   10.7171    0.4125    0.0000 C   0  0  0  0  0  0  0  0  0  0  0  0
   11.4315    0.0000    0.0000 C   0  0  0  0  0  0  0  0  0  0  0  0
   11.4315   -0.8250    0.0000 C   0  0  0  0  0  0  0  0  0  0  0  0
   12.1460   -1.2375    0.0000 Cl  0  0  0  0  0  0  0  0  0  0  0  0
   10.7171   -1.2375    0.0000 C   0  0  0  0  0  0  0  0  0  0  0  0
   10.0026   -0.8250    0.0000 C   0  0  0  0  0  0  0  0  0  0  0  0
   10.0026    0.0000    0.0000 C   0  0  0  0  0  0  0  0  0  0  0  0
    5.7158   -0.8250    0.0000 C   0  0  0  0  0  0  0  0  0  0  0  0
    5.0013   -1.2375    0.0000 C   0  0  0  0  0  0  0  0  0  0  0  0
    5.0013   -2.0625    0.0000 C   0  0  0  0  0  0  0  0  0  0  0  0
    5.7158   -2.4750    0.0000 C   0  0  0  0  0  0  0  0  0  0  0  0
    5.7158   -3.3000    0.0000 Cl  0  0  0  0  0  0  0  0  0  0  0  0
    6.4302   -2.0625    0.0000 C   0  0  0  0  0  0  0  0  0  0  0  0
    7.1447   -2.4750    0.0000 Cl  0  0  0  0  0  0  0  0  0  0  0  0
    6.4302   -1.2375    0.0000 C   0  0  0  0  0  0  0  0  0  0  0  0
  1  2  1  0  0  0  0
  2  3  1  0  0  0  0
  2  4  1  0  0  0  0
  2  5  1  0  0  0  0
  5  6  4  0  0  0  0
  6  7  4  0  0  0  0
  7  8  4  0  0  0  0
  8  9  4  0  0  0  0
  5  9  4  0  0  0  0
  9 10  1  0  0  0  0
 10 11  1  0  0  0  0
 11 12  1  0  0  0  0
 12 13  1  0  0  0  0
 13 14  1  0  0  0  0
 14 15  1  0  0  0  0
 15 16  4  0  0  0  0
 16 17  4  0  0  0  0
 17 18  4  0  0  0  0
 18 19  4  0  0  0  0
 19 20  4  0  0  0  0
 20 21  4  0  0  0  0
 21 22  1  0  0  0  0
 21 23  4  0  0  0  0
 23 24  4  0  0  0  0
 24 25  4  0  0  0  0
 15 25  4  0  0  0  0
 19 25  4  0  0  0  0
 10 26  1  0  0  0  0
 26 27  4  0  0  0  0
 27 28  4  0  0  0  0
 28 29  4  0  0  0  0
 29 30  1  0  0  0  0
 29 31  4  0  0  0  0
 31 32  1  0  0  0  0
 31 33  4  0  0  0  0
 26 33  4  0  0  0  0
M  END
>  <CdId>
377

>  <Mol Weight>
504.84

>  <Formula>
C23H24Cl3N7

>  <Molecule ChEMBL ID>
CHEMBL3099820

>  <Molecule Max Phase>
None

>  <Molecular Weight>
504.85

>  <#RO5 Violations>
2

>  <AlogP>
5.73

>  <Compound Key>
3d

>  <Standard Type>
IC50

$$$$

  Mrv2114 03112311372D          

 36 40  0  0  1  0            999 V2000
    3.3523    4.4104    0.0000 C   0  0  0  0  0  0  0  0  0  0  0  0
    4.0668    4.8229    0.0000 C   0  0  0  0  0  0  0  0  0  0  0  0
    4.0668    5.6479    0.0000 C   0  0  0  0  0  0  0  0  0  0  0  0
    4.7812    6.0604    0.0000 C   0  0  0  0  0  0  0  0  0  0  0  0
    4.7812    6.8854    0.0000 C   0  0  0  0  0  0  0  0  0  0  0  0
    5.4957    7.2979    0.0000 C   0  0  0  0  0  0  0  0  0  0  0  0
    5.4957    8.1229    0.0000 C   0  0  0  0  0  0  0  0  0  0  0  0
    6.1631    8.6079    0.0000 N   0  0  0  0  0  0  0  0  0  0  0  0
    5.9082    9.3925    0.0000 C   0  0  0  0  0  0  0  0  0  0  0  0
    5.0832    9.3925    0.0000 C   0  0  0  0  0  0  0  0  0  0  0  0
    4.8283    8.6079    0.0000 S   0  0  0  0  0  0  0  0  0  0  0  0
    4.6707   10.1070    0.0000 C   0  0  0  0  0  0  0  0  0  0  0  0
    5.0832   10.8214    0.0000 C   0  0  0  0  0  0  0  0  0  0  0  0
    5.9082   10.8214    0.0000 C   0  0  0  0  0  0  0  0  0  0  0  0
    6.3207   10.1070    0.0000 C   0  0  0  0  0  0  0  0  0  0  0  0
    6.2102    6.8854    0.0000 C   0  0  0  0  0  0  0  0  0  0  0  0
    6.2102    6.0604    0.0000 C   0  0  0  0  0  0  0  0  0  0  0  0
    5.4957    5.6479    0.0000 C   0  0  0  0  0  0  0  0  0  0  0  0
    5.4957    4.8229    0.0000 O   0  0  0  0  0  0  0  0  0  0  0  0
    4.7812    4.4104    0.0000 C   0  0  0  0  0  0  0  0  0  0  0  0
    4.7812    3.5854    0.0000 C   0  0  0  0  0  0  0  0  0  0  0  0
    4.0668    3.1729    0.0000 C   0  0  0  0  0  0  0  0  0  0  0  0
    4.0668    2.3479    0.0000 O   0  0  0  0  0  0  0  0  0  0  0  0
    3.3523    1.9354    0.0000 C   0  0  0  0  0  0  0  0  0  0  0  0
    3.3523    1.1104    0.0000 C   0  0  0  0  0  0  0  0  0  0  0  0
    2.6378    0.6979    0.0000 C   0  0  0  0  0  0  0  0  0  0  0  0
    1.9233    1.1104    0.0000 C   0  0  0  0  0  0  0  0  0  0  0  0
    1.9233    1.9354    0.0000 C   0  0  0  0  0  0  0  0  0  0  0  0
    2.6378    2.3479    0.0000 C   0  0  0  0  0  0  0  0  0  0  0  0
    1.1387    2.1904    0.0000 C   0  0  0  0  0  0  0  0  0  0  0  0
    0.6538    1.5229    0.0000 C   0  0  0  0  0  0  0  0  0  0  0  0
    1.1387    0.8555    0.0000 C   0  0  1  0  0  0  0  0  0  0  0  0
    0.8838    0.0709    0.0000 C   0  0  0  0  0  0  0  0  0  0  0  0
    0.0768   -0.1006    0.0000 C   0  0  0  0  0  0  0  0  0  0  0  0
   -0.1781   -0.8853    0.0000 O   0  0  0  0  0  0  0  0  0  0  0  0
   -0.4752    0.5124    0.0000 O   0  0  0  0  0  0  0  0  0  0  0  0
  1  2  1  0  0  0  0
  2  3  1  0  0  0  0
  3  4  1  0  0  0  0
  4  5  4  0  0  0  0
  5  6  4  0  0  0  0
  6  7  1  0  0  0  0
  7  8  4  0  0  0  0
  8  9  4  0  0  0  0
  9 10  4  0  0  0  0
 10 11  4  0  0  0  0
  7 11  4  0  0  0  0
 10 12  1  0  0  0  0
 12 13  1  0  0  0  0
 13 14  1  0  0  0  0
 14 15  1  0  0  0  0
  9 15  1  0  0  0  0
  6 16  4  0  0  0  0
 16 17  4  0  0  0  0
 17 18  4  0  0  0  0
  4 18  4  0  0  0  0
 18 19  1  0  0  0  0
 19 20  1  0  0  0  0
 20 21  1  0  0  0  0
 21 22  1  0  0  0  0
 22 23  1  0  0  0  0
 23 24  1  0  0  0  0
 24 25  4  0  0  0  0
 25 26  4  0  0  0  0
 26 27  4  0  0  0  0
 27 28  4  0  0  0  0
 28 29  4  0  0  0  0
 24 29  4  0  0  0  0
 28 30  1  0  0  0  0
 30 31  1  0  0  0  0
 32 31  1  0  0  0  0
 32 27  1  0  0  0  0
 32 33  1  6  0  0  0
 33 34  1  0  0  0  0
 34 35  2  0  0  0  0
 34 36  1  0  0  0  0
M  END
>  <CdId>
378

>  <Mol Weight>
505.67

>  <Formula>
C30H35NO4S

>  <Molecule ChEMBL ID>
CHEMBL2113263

>  <Molecule Max Phase>
None

>  <Molecular Weight>
505.68

>  <#RO5 Violations>
2

>  <AlogP>
6.99

>  <Compound Key>
34p

>  <Standard Type>
IC50

>  <Standard Relation>
'>'

>  <Standard Value>
10000.0

>  <Standard Units>
nM

$$$$

  Mrv2114 03112311372D          

 36 39  0  0  0  0            999 V2000
    2.1738   -3.6366    0.0000 C   0  0  0  0  0  0  0  0  0  0  0  0
    2.1738   -4.4616    0.0000 C   0  0  0  0  0  0  0  0  0  0  0  0
    2.8412   -4.9465    0.0000 N   0  0  0  0  0  0  0  0  0  0  0  0
    2.5863   -5.7311    0.0000 N   0  0  0  0  0  0  0  0  0  0  0  0
    3.0712   -6.3986    0.0000 C   0  0  0  0  0  0  0  0  0  0  0  0
    2.7356   -7.1522    0.0000 C   0  0  0  0  0  0  0  0  0  0  0  0
    3.8917   -6.3123    0.0000 C   0  0  0  0  0  0  0  0  0  0  0  0
    4.2272   -5.5586    0.0000 C   0  0  0  0  0  0  0  0  0  0  0  0
    5.0477   -5.4724    0.0000 C   0  0  0  0  0  0  0  0  0  0  0  0
    5.5326   -6.1398    0.0000 C   0  0  0  0  0  0  0  0  0  0  0  0
    6.3531   -6.0536    0.0000 C   0  0  0  0  0  0  0  0  0  0  0  0
    7.1736   -5.9674    0.0000 F   0  0  0  0  0  0  0  0  0  0  0  0
    6.2669   -5.2331    0.0000 F   0  0  0  0  0  0  0  0  0  0  0  0
    6.4393   -6.8741    0.0000 F   0  0  0  0  0  0  0  0  0  0  0  0
    5.1971   -6.8935    0.0000 C   0  0  0  0  0  0  0  0  0  0  0  0
    4.3766   -6.9798    0.0000 C   0  0  0  0  0  0  0  0  0  0  0  0
    4.0410   -7.7334    0.0000 C   0  0  0  0  0  0  0  0  0  0  0  0
    3.7055   -8.4871    0.0000 F   0  0  0  0  0  0  0  0  0  0  0  0
    3.2874   -7.3979    0.0000 F   0  0  0  0  0  0  0  0  0  0  0  0
    4.7947   -8.0690    0.0000 F   0  0  0  0  0  0  0  0  0  0  0  0
    1.7613   -5.7311    0.0000 C   0  0  0  0  0  0  0  0  0  0  0  0
    1.5063   -4.9465    0.0000 C   0  0  0  0  0  0  0  0  0  0  0  0
    0.7217   -4.6916    0.0000 N   0  0  0  0  0  0  0  0  0  0  0  0
    0.5502   -3.8846    0.0000 C   0  0  0  0  0  0  0  0  0  0  0  0
    1.1633   -3.3325    0.0000 O   0  0  0  0  0  0  0  0  0  0  0  0
   -0.2345   -3.6296    0.0000 C   0  0  0  0  0  0  0  0  0  0  0  0
   -0.9019   -4.1146    0.0000 N   0  0  0  0  0  0  0  0  0  0  0  0
   -1.5693   -3.6296    0.0000 N   0  0  0  0  0  0  0  0  0  0  0  0
   -1.3144   -2.8450    0.0000 C   0  0  0  0  0  0  0  0  0  0  0  0
   -1.7993   -2.1776    0.0000 C   0  0  0  0  0  0  0  0  0  0  0  0
   -2.6198   -2.2638    0.0000 C   0  0  0  0  0  0  0  0  0  0  0  0
   -3.1047   -1.5964    0.0000 C   0  0  0  0  0  0  0  0  0  0  0  0
   -2.7692   -0.8427    0.0000 C   0  0  0  0  0  0  0  0  0  0  0  0
   -1.9487   -0.7565    0.0000 C   0  0  0  0  0  0  0  0  0  0  0  0
   -1.4638   -1.4239    0.0000 N   0  0  0  0  0  0  0  0  0  0  0  0
   -0.4894   -2.8450    0.0000 S   0  0  0  0  0  0  0  0  0  0  0  0
  1  2  1  0  0  0  0
  2  3  4  0  0  0  0
  3  4  4  0  0  0  0
  4  5  1  0  0  0  0
  5  6  1  0  0  0  0
  5  7  1  0  0  0  0
  7  8  4  0  0  0  0
  8  9  4  0  0  0  0
  9 10  4  0  0  0  0
 10 11  1  0  0  0  0
 11 12  1  0  0  0  0
 11 13  1  0  0  0  0
 11 14  1  0  0  0  0
 10 15  4  0  0  0  0
 15 16  4  0  0  0  0
  7 16  4  0  0  0  0
 16 17  1  0  0  0  0
 17 18  1  0  0  0  0
 17 19  1  0  0  0  0
 17 20  1  0  0  0  0
  4 21  4  0  0  0  0
 21 22  4  0  0  0  0
  2 22  4  0  0  0  0
 22 23  1  0  0  0  0
 23 24  1  0  0  0  0
 24 25  2  0  0  0  0
 24 26  1  0  0  0  0
 26 27  4  0  0  0  0
 27 28  4  0  0  0  0
 28 29  4  0  0  0  0
 29 30  1  0  0  0  0
 30 31  4  0  0  0  0
 31 32  4  0  0  0  0
 32 33  4  0  0  0  0
 33 34  4  0  0  0  0
 34 35  4  0  0  0  0
 30 35  4  0  0  0  0
 29 36  4  0  0  0  0
 26 36  4  0  0  0  0
M  END
>  <CdId>
379

>  <Mol Weight>
526.46

>  <Formula>
C22H16F6N6OS

>  <Molecule ChEMBL ID>
CHEMBL5089671

>  <Molecule Max Phase>
None

>  <Molecular Weight>
526.47

>  <#RO5 Violations>
2

>  <AlogP>
6

>  <Compound Key>
Compound 138

>  <Standard Type>
IC50

>  <Standard Relation>
'>'

>  <Standard Value>
50000.0

>  <Standard Units>
nM

$$$$

  Mrv2114 03112311372D          

 24 26  0  0  1  0            999 V2000
    5.0013   -2.0625    0.0000 C   0  0  0  0  0  0  0  0  0  0  0  0
    5.7158   -1.6500    0.0000 C   0  0  0  0  0  0  0  0  0  0  0  0
    6.4302   -2.0625    0.0000 C   0  0  0  0  0  0  0  0  0  0  0  0
    7.1447   -1.6500    0.0000 C   0  0  0  0  0  0  0  0  0  0  0  0
    7.8592   -2.0625    0.0000 C   0  0  0  0  0  0  0  0  0  0  0  0
    8.5737   -1.6500    0.0000 C   0  0  0  0  0  0  0  0  0  0  0  0
    9.2881   -2.0625    0.0000 C   0  0  2  0  0  0  0  0  0  0  0  0
   10.0026   -1.6500    0.0000 C   0  0  0  0  0  0  0  0  0  0  0  0
   10.7171   -2.0625    0.0000 C   0  0  0  0  0  0  0  0  0  0  0  0
   10.7171   -2.8875    0.0000 C   0  0  0  0  0  0  0  0  0  0  0  0
   11.4315   -3.3000    0.0000 C   0  0  0  0  0  0  0  0  0  0  0  0
   11.4315   -4.1250    0.0000 C   0  0  0  0  0  0  0  0  0  0  0  0
   12.1460   -4.5375    0.0000 C   0  0  1  0  0  0  0  0  0  0  0  0
   12.8997   -4.2019    0.0000 C   0  0  0  0  0  0  0  0  0  0  0  0
   13.4517   -4.8150    0.0000 C   0  0  0  0  0  0  0  0  0  0  0  0
   13.0392   -5.5295    0.0000 C   0  0  2  0  0  0  0  0  0  0  0  0
   13.7929   -5.8651    0.0000 N   0  0  0  0  0  0  0  0  0  0  0  0
   12.7843   -6.3141    0.0000 C   0  0  0  0  0  0  0  0  0  0  0  0
   13.3363   -6.9272    0.0000 O   0  0  0  0  0  0  0  0  0  0  0  0
   12.2322   -5.3580    0.0000 C   0  0  0  0  0  0  0  0  0  0  0  0
   10.7171   -4.5375    0.0000 C   0  0  0  0  0  0  0  0  0  0  0  0
   10.0026   -4.1250    0.0000 C   0  0  0  0  0  0  0  0  0  0  0  0
   10.0026   -3.3000    0.0000 C   0  0  0  0  0  0  0  0  0  0  0  0
    9.2881   -2.8875    0.0000 C   0  0  0  0  0  0  0  0  0  0  0  0
  1  2  1  0  0  0  0
  2  3  1  0  0  0  0
  3  4  1  0  0  0  0
  4  5  1  0  0  0  0
  5  6  1  0  0  0  0
  7  6  1  6  0  0  0
  7  8  1  0  0  0  0
  8  9  1  0  0  0  0
  9 10  1  0  0  0  0
 10 11  4  0  0  0  0
 11 12  4  0  0  0  0
 13 12  1  1  0  0  0
 13 14  1  0  0  0  0
 14 15  1  0  0  0  0
 16 15  1  0  0  0  0
 16 17  1  1  0  0  0
 16 18  1  6  0  0  0
 18 19  1  0  0  0  0
 16 20  1  0  0  0  0
 13 20  1  0  0  0  0
 12 21  4  0  0  0  0
 21 22  4  0  0  0  0
 22 23  4  0  0  0  0
 10 23  4  0  0  0  0
 23 24  1  0  0  0  0
  7 24  1  0  0  0  0
M  END
>  <CdId>
380

>  <Mol Weight>
329.528

>  <Formula>
C22H35NO

>  <Molecule ChEMBL ID>
CHEMBL3806158

>  <Molecule Name>
BMS-986104

>  <Molecule Max Phase>
1

>  <Molecular Weight>
329.53

>  <#RO5 Violations>
0

>  <AlogP>
4.72

>  <Compound Key>
4a; BMS-986104

>  <Standard Type>
IC50

>  <Standard Relation>
'='

>  <Standard Value>
5000.0

>  <Standard Units>
nM

$$$$

  Mrv2114 03112311372D          

 24 26  0  0  0  0            999 V2000
    5.0013    2.8875    0.0000 C   0  0  0  0  0  0  0  0  0  0  0  0
    4.2868    2.4750    0.0000 C   0  0  0  0  0  0  0  0  0  0  0  0
    4.2868    1.6500    0.0000 C   0  0  0  0  0  0  0  0  0  0  0  0
    3.5724    1.2375    0.0000 C   0  0  0  0  0  0  0  0  0  0  0  0
    3.5724    0.4125    0.0000 C   0  0  0  0  0  0  0  0  0  0  0  0
    2.8579   -0.0000    0.0000 C   0  0  0  0  0  0  0  0  0  0  0  0
    2.1434    0.4125    0.0000 C   0  0  0  0  0  0  0  0  0  0  0  0
    1.4289   -0.0000    0.0000 S   0  0  0  0  0  0  0  0  0  0  0  0
    1.0164    0.7145    0.0000 O   0  0  0  0  0  0  0  0  0  0  0  0
    1.8414   -0.7145    0.0000 O   0  0  0  0  0  0  0  0  0  0  0  0
    0.7145   -0.4125    0.0000 N   0  0  0  0  0  0  0  0  0  0  0  0
    0.7145   -1.2375    0.0000 C   0  0  0  0  0  0  0  0  0  0  0  0
    1.3819   -1.7224    0.0000 C   0  0  0  0  0  0  0  0  0  0  0  0
    1.1270   -2.5070    0.0000 C   0  0  0  0  0  0  0  0  0  0  0  0
    0.3020   -2.5070    0.0000 N   0  0  0  0  0  0  0  0  0  0  0  0
    0.0470   -1.7224    0.0000 N   0  0  0  0  0  0  0  0  0  0  0  0
   -0.7376   -1.4675    0.0000 C   0  0  0  0  0  0  0  0  0  0  0  0
   -1.3507   -2.0195    0.0000 C   0  0  0  0  0  0  0  0  0  0  0  0
   -2.1353   -1.7646    0.0000 C   0  0  0  0  0  0  0  0  0  0  0  0
   -2.3068   -0.9576    0.0000 C   0  0  0  0  0  0  0  0  0  0  0  0
   -1.6937   -0.4056    0.0000 C   0  0  0  0  0  0  0  0  0  0  0  0
   -0.9091   -0.6605    0.0000 C   0  0  0  0  0  0  0  0  0  0  0  0
    2.1434    1.2375    0.0000 C   0  0  0  0  0  0  0  0  0  0  0  0
    2.8579    1.6500    0.0000 C   0  0  0  0  0  0  0  0  0  0  0  0
  1  2  2  0  0  0  0
  2  3  1  0  0  0  0
  3  4  1  0  0  0  0
  4  5  4  0  0  0  0
  5  6  4  0  0  0  0
  6  7  4  0  0  0  0
  7  8  1  0  0  0  0
  8  9  2  0  0  0  0
  8 10  2  0  0  0  0
  8 11  1  0  0  0  0
 11 12  1  0  0  0  0
 12 13  4  0  0  0  0
 13 14  4  0  0  0  0
 14 15  4  0  0  0  0
 15 16  4  0  0  0  0
 12 16  4  0  0  0  0
 16 17  1  0  0  0  0
 17 18  4  0  0  0  0
 18 19  4  0  0  0  0
 19 20  4  0  0  0  0
 20 21  4  0  0  0  0
 21 22  4  0  0  0  0
 17 22  4  0  0  0  0
  7 23  4  0  0  0  0
 23 24  4  0  0  0  0
  4 24  4  0  0  0  0
M  END
>  <CdId>
381

>  <Mol Weight>
339.41

>  <Formula>
C18H17N3O2S

>  <Molecule ChEMBL ID>
CHEMBL332994

>  <Molecule Max Phase>
None

>  <Molecular Weight>
339.42

>  <#RO5 Violations>
0

>  <AlogP>
3.4

>  <Compound Key>
4

>  <Standard Type>
IC50

>  <Standard Relation>
'='

>  <Standard Value>
10000.0

>  <Standard Units>
nM

$$$$

  Mrv2114 03112311372D          

 23 26  0  0  0  0            999 V2000
    4.0668    3.1729    0.0000 O   0  0  0  0  0  0  0  0  0  0  0  0
    4.0668    2.3479    0.0000 C   0  0  0  0  0  0  0  0  0  0  0  0
    4.7812    1.9354    0.0000 C   0  0  0  0  0  0  0  0  0  0  0  0
    5.4957    2.3479    0.0000 C   0  0  0  0  0  0  0  0  0  0  0  0
    6.2102    1.9354    0.0000 C   0  0  0  0  0  0  0  0  0  0  0  0
    6.2102    1.1104    0.0000 C   0  0  0  0  0  0  0  0  0  0  0  0
    5.4957    0.6979    0.0000 C   0  0  0  0  0  0  0  0  0  0  0  0
    4.7812    1.1104    0.0000 C   0  0  0  0  0  0  0  0  0  0  0  0
    3.3523    1.9354    0.0000 N   0  0  0  0  0  0  0  0  0  0  0  0
    3.3523    1.1104    0.0000 C   0  0  0  0  0  0  0  0  0  0  0  0
    2.6378    0.6979    0.0000 C   0  0  0  0  0  0  0  0  0  0  0  0
    1.9233    1.1104    0.0000 N   0  0  0  0  0  0  0  0  0  0  0  0
    1.1387    0.8555    0.0000 N   0  0  0  0  0  0  0  0  0  0  0  0
    0.6538    1.5229    0.0000 C   0  0  0  0  0  0  0  0  0  0  0  0
   -0.1712    1.5229    0.0000 C   0  0  0  0  0  0  0  0  0  0  0  0
   -0.5837    0.8085    0.0000 C   0  0  0  0  0  0  0  0  0  0  0  0
   -1.4087    0.8085    0.0000 C   0  0  0  0  0  0  0  0  0  0  0  0
   -1.8212    1.5229    0.0000 C   0  0  0  0  0  0  0  0  0  0  0  0
   -1.4087    2.2374    0.0000 C   0  0  0  0  0  0  0  0  0  0  0  0
   -0.5837    2.2374    0.0000 N   0  0  0  0  0  0  0  0  0  0  0  0
    1.1387    2.1904    0.0000 C   0  0  0  0  0  0  0  0  0  0  0  0
    1.9233    1.9354    0.0000 C   0  0  0  0  0  0  0  0  0  0  0  0
    2.6378    2.3479    0.0000 C   0  0  0  0  0  0  0  0  0  0  0  0
  1  2  2  0  0  0  0
  2  3  1  0  0  0  0
  3  4  4  0  0  0  0
  4  5  4  0  0  0  0
  5  6  4  0  0  0  0
  6  7  4  0  0  0  0
  7  8  4  0  0  0  0
  3  8  4  0  0  0  0
  2  9  1  0  0  0  0
  9 10  1  0  0  0  0
 10 11  1  0  0  0  0
 11 12  1  0  0  0  0
 12 13  4  0  0  0  0
 13 14  4  0  0  0  0
 14 15  1  0  0  0  0
 15 16  4  0  0  0  0
 16 17  4  0  0  0  0
 17 18  4  0  0  0  0
 18 19  4  0  0  0  0
 19 20  4  0  0  0  0
 15 20  4  0  0  0  0
 14 21  4  0  0  0  0
 21 22  4  0  0  0  0
 12 22  4  0  0  0  0
 22 23  1  0  0  0  0
  9 23  1  0  0  0  0
M  END
>  <CdId>
382

>  <Mol Weight>
304.353

>  <Formula>
C18H16N4O

>  <Molecule ChEMBL ID>
CHEMBL4554361

>  <Molecule Max Phase>
None

>  <Molecular Weight>
304.35

>  <#RO5 Violations>
0

>  <AlogP>
2.6

>  <Compound Key>
14

>  <Standard Type>
IC50

>  <Standard Relation>
'>'

>  <Standard Value>
50000.0

>  <Standard Units>
nM

$$$$

  Mrv2114 03112311372D          

 28 30  0  0  0  0            999 V2000
    0.0000   -1.6500    0.0000 C   0  0  0  0  0  0  0  0  0  0  0  0
    0.7145   -2.0625    0.0000 C   0  0  0  0  0  0  0  0  0  0  0  0
    1.4289   -1.6500    0.0000 C   0  0  0  0  0  0  0  0  0  0  0  0
    1.4289   -0.8250    0.0000 O   0  0  0  0  0  0  0  0  0  0  0  0
    2.1434   -2.0625    0.0000 N   0  0  0  0  0  0  0  0  0  0  0  0
    2.8579   -1.6500    0.0000 C   0  0  0  0  0  0  0  0  0  0  0  0
    2.8579   -0.8250    0.0000 C   0  0  0  0  0  0  0  0  0  0  0  0
    2.1434   -0.4125    0.0000 C   0  0  0  0  0  0  0  0  0  0  0  0
    2.1434    0.4125    0.0000 C   0  0  0  0  0  0  0  0  0  0  0  0
    2.8579    0.8250    0.0000 C   0  0  0  0  0  0  0  0  0  0  0  0
    2.8579    1.6500    0.0000 C   0  0  0  0  0  0  0  0  0  0  0  0
    2.8579    2.4750    0.0000 F   0  0  0  0  0  0  0  0  0  0  0  0
    2.0329    1.6500    0.0000 F   0  0  0  0  0  0  0  0  0  0  0  0
    3.6829    1.6500    0.0000 F   0  0  0  0  0  0  0  0  0  0  0  0
    3.5724    0.4125    0.0000 C   0  0  0  0  0  0  0  0  0  0  0  0
    3.5724   -0.4125    0.0000 C   0  0  0  0  0  0  0  0  0  0  0  0
    2.1434   -2.8875    0.0000 C   0  0  0  0  0  0  0  0  0  0  0  0
    2.8579   -3.3000    0.0000 C   0  0  0  0  0  0  0  0  0  0  0  0
    2.8579   -4.1250    0.0000 C   0  0  0  0  0  0  0  0  0  0  0  0
    3.5724   -4.5375    0.0000 F   0  0  0  0  0  0  0  0  0  0  0  0
    2.1434   -4.5375    0.0000 C   0  0  0  0  0  0  0  0  0  0  0  0
    1.4289   -4.1250    0.0000 C   0  0  0  0  0  0  0  0  0  0  0  0
    0.7145   -4.5375    0.0000 C   0  0  0  0  0  0  0  0  0  0  0  0
    0.6282   -5.3580    0.0000 N   0  0  0  0  0  0  0  0  0  0  0  0
   -0.1787   -5.5295    0.0000 N   0  0  0  0  0  0  0  0  0  0  0  0
   -0.5912   -4.8150    0.0000 N   0  0  0  0  0  0  0  0  0  0  0  0
   -0.0392   -4.2019    0.0000 N   0  0  0  0  0  0  0  0  0  0  0  0
    1.4289   -3.3000    0.0000 C   0  0  0  0  0  0  0  0  0  0  0  0
  1  2  1  0  0  0  0
  2  3  1  0  0  0  0
  3  4  2  0  0  0  0
  3  5  1  0  0  0  0
  5  6  1  0  0  0  0
  6  7  1  0  0  0  0
  7  8  4  0  0  0  0
  8  9  4  0  0  0  0
  9 10  4  0  0  0  0
 10 11  1  0  0  0  0
 11 12  1  0  0  0  0
 11 13  1  0  0  0  0
 11 14  1  0  0  0  0
 10 15  4  0  0  0  0
 15 16  4  0  0  0  0
  7 16  4  0  0  0  0
  5 17  1  0  0  0  0
 17 18  4  0  0  0  0
 18 19  4  0  0  0  0
 19 20  1  0  0  0  0
 19 21  4  0  0  0  0
 21 22  4  0  0  0  0
 22 23  1  0  0  0  0
 23 24  4  0  0  0  0
 24 25  4  0  0  0  0
 25 26  4  0  0  0  0
 26 27  4  0  0  0  0
 23 27  4  0  0  0  0
 22 28  4  0  0  0  0
 17 28  4  0  0  0  0
M  STY  1   1 DAT
M  SAL   1  1  27
M  SDT   1 MRV_IMPLICIT_H                                        
M  SDD   1     0.0000    0.0000    DR    ALL  0       0  
M  SED   1 IMPL_H1
M  END
>  <CdId>
383

>  <Mol Weight>
393.346

>  <Formula>
C18H15F4N5O

>  <Molecule ChEMBL ID>
CHEMBL2036210

>  <Molecule Max Phase>
None

>  <Molecular Weight>
393.34

>  <#RO5 Violations>
0

>  <AlogP>
3.97

>  <Compound Key>
48

>  <Standard Type>
IC50

>  <Standard Relation>
'='

>  <Standard Value>
86.0

>  <Standard Units>
nM

$$$$

  Mrv2114 03112311372D          

 43 48  0  0  1  0            999 V2000
   -0.7145    1.2375    0.0000 C   0  0  0  0  0  0  0  0  0  0  0  0
   -0.7145    2.0625    0.0000 C   0  0  0  0  0  0  0  0  0  0  0  0
   -1.4289    2.4750    0.0000 N   0  0  0  0  0  0  0  0  0  0  0  0
   -1.4289    3.3000    0.0000 C   0  0  0  0  0  0  0  0  0  0  0  0
   -2.1434    3.7125    0.0000 O   0  0  0  0  0  0  0  0  0  0  0  0
   -2.1434    4.5375    0.0000 C   0  0  0  0  0  0  0  0  0  0  0  0
   -2.8579    4.9500    0.0000 C   0  0  0  0  0  0  0  0  0  0  0  0
   -2.8579    5.7750    0.0000 C   0  0  0  0  0  0  0  0  0  0  0  0
   -2.1434    6.1875    0.0000 C   0  0  0  0  0  0  0  0  0  0  0  0
   -2.1434    7.0125    0.0000 C   0  0  0  0  0  0  0  0  0  0  0  0
   -1.4289    7.4250    0.0000 O   0  0  0  0  0  0  0  0  0  0  0  0
   -2.8579    7.4250    0.0000 O   0  0  0  0  0  0  0  0  0  0  0  0
   -1.4289    5.7750    0.0000 C   0  0  0  0  0  0  0  0  0  0  0  0
   -1.4289    4.9500    0.0000 C   0  0  0  0  0  0  0  0  0  0  0  0
   -0.7145    3.7125    0.0000 C   0  0  0  0  0  0  0  0  0  0  0  0
   -0.0000    3.3000    0.0000 C   0  0  0  0  0  0  0  0  0  0  0  0
    0.0000    2.4750    0.0000 C   0  0  0  0  0  0  0  0  0  0  0  0
    0.7145    2.0625    0.0000 C   0  0  0  0  0  0  0  0  0  0  0  0
    0.7145    1.2375    0.0000 N   0  0  0  0  0  0  0  0  0  0  0  0
    1.4289    0.8250    0.0000 C   0  0  0  0  0  0  0  0  0  0  0  0
    1.4289   -0.0000    0.0000 C   0  0  0  0  0  0  0  0  0  0  0  0
    0.7145   -0.4125    0.0000 C   0  0  0  0  0  0  0  0  0  0  0  0
    0.7145   -1.2375    0.0000 N   0  0  0  0  0  0  0  0  0  0  0  0
    1.3819   -1.7224    0.0000 C   0  0  0  0  0  0  0  0  0  0  0  0
    2.1665   -1.4675    0.0000 O   0  0  0  0  0  0  0  0  0  0  0  0
    1.1270   -2.5070    0.0000 N   0  0  0  0  0  0  0  0  0  0  0  0
    1.6119   -3.1745    0.0000 C   0  0  0  0  0  0  0  0  0  0  0  0
    2.4324   -3.0882    0.0000 C   0  0  0  0  0  0  0  0  0  0  0  0
    2.9173   -3.7557    0.0000 C   0  0  0  0  0  0  0  0  0  0  0  0
    2.5817   -4.5094    0.0000 O   0  0  0  0  0  0  0  0  0  0  0  0
    1.7613   -4.5956    0.0000 C   0  0  0  0  0  0  0  0  0  0  0  0
    1.2763   -3.9282    0.0000 C   0  0  0  0  0  0  0  0  0  0  0  0
    0.3020   -2.5070    0.0000 C   0  0  0  0  0  0  0  0  0  0  0  0
    0.0470   -1.7224    0.0000 C   0  0  1  0  0  0  0  0  0  0  0  0
   -0.7376   -1.4675    0.0000 C   0  0  0  0  0  0  0  0  0  0  0  0
   -1.3507   -2.0195    0.0000 C   0  0  0  0  0  0  0  0  0  0  0  0
   -2.1353   -1.7646    0.0000 C   0  0  0  0  0  0  0  0  0  0  0  0
   -2.3068   -0.9576    0.0000 C   0  0  0  0  0  0  0  0  0  0  0  0
   -1.6937   -0.4056    0.0000 C   0  0  0  0  0  0  0  0  0  0  0  0
   -1.8653    0.4014    0.0000 Cl  0  0  0  0  0  0  0  0  0  0  0  0
   -0.9091   -0.6605    0.0000 C   0  0  0  0  0  0  0  0  0  0  0  0
    0.0000   -0.0000    0.0000 C   0  0  0  0  0  0  0  0  0  0  0  0
    0.0000    0.8250    0.0000 C   0  0  0  0  0  0  0  0  0  0  0  0
  1  2  1  0  0  0  0
  2  3  4  0  0  0  0
  3  4  4  0  0  0  0
  4  5  1  0  0  0  0
  5  6  1  0  0  0  0
  6  7  4  0  0  0  0
  7  8  4  0  0  0  0
  8  9  4  0  0  0  0
  9 10  1  0  0  0  0
 10 11  2  0  0  0  0
 10 12  1  0  0  0  0
  9 13  4  0  0  0  0
 13 14  4  0  0  0  0
  6 14  4  0  0  0  0
  4 15  4  0  0  0  0
 15 16  4  0  0  0  0
 16 17  4  0  0  0  0
  2 17  4  0  0  0  0
 17 18  1  0  0  0  0
 18 19  1  0  0  0  0
 19 20  1  0  0  0  0
 20 21  1  0  0  0  0
 21 22  1  0  0  0  0
 22 23  1  0  0  0  0
 23 24  1  0  0  0  0
 24 25  2  0  0  0  0
 24 26  1  0  0  0  0
 26 27  1  0  0  0  0
 27 28  1  0  0  0  0
 28 29  1  0  0  0  0
 29 30  1  0  0  0  0
 30 31  1  0  0  0  0
 31 32  1  0  0  0  0
 27 32  1  0  0  0  0
 26 33  1  0  0  0  0
 34 33  1  0  0  0  0
 34 23  1  0  0  0  0
 34 35  1  1  0  0  0
 35 36  4  0  0  0  0
 36 37  4  0  0  0  0
 37 38  4  0  0  0  0
 38 39  4  0  0  0  0
 39 40  1  0  0  0  0
 39 41  4  0  0  0  0
 35 41  4  0  0  0  0
 22 42  1  0  0  0  0
 42 43  1  0  0  0  0
 19 43  1  0  0  0  0
M  END
>  <CdId>
384

>  <Mol Weight>
605.13

>  <Formula>
C33H37ClN4O5

>  <Molecule ChEMBL ID>
CHEMBL2435853

>  <Molecule Max Phase>
None

>  <Molecular Weight>
605.14

>  <#RO5 Violations>
2

>  <AlogP>
6.16

>  <Compound Key>
6e

>  <Standard Type>
IC50

>  <Standard Relation>
'>'

>  <Standard Value>
100000.0

>  <Standard Units>
nM

$$$$

  Mrv2114 03112311372D          

 16 15  0  0  0  0            999 V2000
   -1.2226    0.6401    0.0000 C   0  0  0  0  0  0  0  0  0  0  0  0
   -0.5082    1.0526    0.0000 C   0  0  0  0  0  0  0  0  0  0  0  0
   -0.5082    1.8776    0.0000 C   0  0  0  0  0  0  0  0  0  0  0  0
    0.2063    2.2901    0.0000 C   0  0  0  0  0  0  0  0  0  0  0  0
    0.9208    1.8776    0.0000 N   0  0  0  0  0  0  0  0  0  0  0  0
    0.9208    1.0526    0.0000 C   0  0  0  0  0  0  0  0  0  0  0  0
    0.2063    0.6401    0.0000 C   0  0  0  0  0  0  0  0  0  0  0  0
    0.2063   -0.1849    0.0000 C   0  0  0  0  0  0  0  0  0  0  0  0
    0.8737   -0.6698    0.0000 C   0  0  0  0  0  0  0  0  0  0  0  0
    0.6188   -1.4544    0.0000 C   0  0  0  0  0  0  0  0  0  0  0  0
   -0.2062   -1.4544    0.0000 C   0  0  0  0  0  0  0  0  0  0  0  0
   -0.6911   -2.1219    0.0000 C   0  0  0  0  0  0  0  0  0  0  0  0
   -0.3556   -2.8755    0.0000 N   0  0  0  0  0  0  0  0  0  0  0  0
   -0.4611   -0.6698    0.0000 S   0  0  0  0  0  0  0  0  0  0  0  0
    2.9243    0.0000    0.0000 Cl  0  0  0  0  0  0  0  0  0  0  0  0
    0.0000   -4.5255    0.0000 Cl  0  0  0  0  0  0  0  0  0  0  0  0
  1  2  1  0  0  0  0
  2  3  4  0  0  0  0
  3  4  4  0  0  0  0
  4  5  4  0  0  0  0
  5  6  4  0  0  0  0
  6  7  4  0  0  0  0
  2  7  4  0  0  0  0
  7  8  1  0  0  0  0
  8  9  4  0  0  0  0
  9 10  4  0  0  0  0
 10 11  4  0  0  0  0
 11 12  1  0  0  0  0
 12 13  1  0  0  0  0
 11 14  4  0  0  0  0
  8 14  4  0  0  0  0
M  END
>  <CdId>
385

>  <Mol Weight>
277.21

>  <Formula>
C11H14Cl2N2S

>  <Molecule ChEMBL ID>
CHEMBL4176100

>  <Molecule Max Phase>
None

>  <Molecular Weight>
277.22

>  <#RO5 Violations>
0

>  <AlogP>
2.58

>  <Compound Key>
6g

>  <Standard Type>
IC50

>  <Standard Relation>
'='

>  <Standard Value>
80000.0

>  <Standard Units>
nM

$$$$

  Mrv2114 03112311372D          

 41 46  0  0  1  0            999 V2000
   -1.9432   -3.8082    0.0000 C   0  0  0  0  0  0  0  0  0  0  0  0
   -1.6077   -3.0545    0.0000 N   0  0  0  0  0  0  0  0  0  0  0  0
   -0.8007   -2.8830    0.0000 C   0  0  0  0  0  0  0  0  0  0  0  0
   -0.7145   -2.0625    0.0000 C   0  0  0  0  0  0  0  0  0  0  0  0
    0.0000   -1.6500    0.0000 S   0  0  0  0  0  0  0  0  0  0  0  0
    0.4125   -2.3645    0.0000 O   0  0  0  0  0  0  0  0  0  0  0  0
   -0.4125   -0.9355    0.0000 O   0  0  0  0  0  0  0  0  0  0  0  0
    0.7145   -1.2375    0.0000 N   0  0  0  0  0  0  0  0  0  0  0  0
    0.7145   -0.4125    0.0000 C   0  0  0  0  0  0  0  0  0  0  0  0
    1.4289    0.0000    0.0000 C   0  0  0  0  0  0  0  0  0  0  0  0
    2.1434   -0.4125    0.0000 C   0  0  0  0  0  0  0  0  0  0  0  0
    2.8579    0.0000    0.0000 C   0  0  0  0  0  0  0  0  0  0  0  0
    3.5724   -0.4125    0.0000 C   0  0  0  0  0  0  0  0  0  0  0  0
    3.5724   -1.2375    0.0000 C   0  0  0  0  0  0  0  0  0  0  0  0
    4.3570   -1.4924    0.0000 C   0  0  0  0  0  0  0  0  0  0  0  0
    4.8419   -0.8250    0.0000 N   0  0  0  0  0  0  0  0  0  0  0  0
    4.3570   -0.1576    0.0000 N   0  0  0  0  0  0  0  0  0  0  0  0
    4.6119    0.6271    0.0000 C   0  0  0  0  0  0  0  0  0  0  0  0
    4.0599    1.2402    0.0000 C   0  0  0  0  0  0  0  0  0  0  0  0
    4.3148    2.0248    0.0000 C   0  0  0  0  0  0  0  0  0  0  0  0
    5.1218    2.1963    0.0000 C   0  0  0  0  0  0  0  0  0  0  0  0
    5.3767    2.9809    0.0000 F   0  0  0  0  0  0  0  0  0  0  0  0
    5.6738    1.5832    0.0000 C   0  0  0  0  0  0  0  0  0  0  0  0
    5.4189    0.7986    0.0000 C   0  0  0  0  0  0  0  0  0  0  0  0
    2.8579   -1.6500    0.0000 C   0  0  0  0  0  0  0  0  0  0  0  0
    2.1434   -1.2375    0.0000 C   0  0  1  0  0  0  0  0  0  0  0  0
    2.1434   -2.0625    0.0000 C   0  0  0  0  0  0  0  0  0  0  0  0
    1.4289   -2.4750    0.0000 O   0  0  0  0  0  0  0  0  0  0  0  0
    2.8579   -2.4750    0.0000 C   0  0  0  0  0  0  0  0  0  0  0  0
    2.8579   -3.3000    0.0000 C   0  0  0  0  0  0  0  0  0  0  0  0
    3.5724   -3.7125    0.0000 C   0  0  0  0  0  0  0  0  0  0  0  0
    3.5724   -4.5375    0.0000 C   0  0  0  0  0  0  0  0  0  0  0  0
    3.5724   -5.3625    0.0000 F   0  0  0  0  0  0  0  0  0  0  0  0
    2.7474   -4.5375    0.0000 F   0  0  0  0  0  0  0  0  0  0  0  0
    4.3974   -4.5375    0.0000 F   0  0  0  0  0  0  0  0  0  0  0  0
    4.2868   -3.3000    0.0000 C   0  0  0  0  0  0  0  0  0  0  0  0
    4.2868   -2.4750    0.0000 C   0  0  0  0  0  0  0  0  0  0  0  0
    3.5724   -2.0625    0.0000 N   0  0  0  0  0  0  0  0  0  0  0  0
    1.4289   -1.6500    0.0000 C   0  0  0  0  0  0  0  0  0  0  0  0
   -1.4681   -1.7269    0.0000 C   0  0  0  0  0  0  0  0  0  0  0  0
   -2.0202   -2.3400    0.0000 N   0  0  0  0  0  0  0  0  0  0  0  0
  1  2  1  0  0  0  0
  2  3  4  0  0  0  0
  3  4  4  0  0  0  0
  4  5  1  0  0  0  0
  5  6  2  0  0  0  0
  5  7  2  0  0  0  0
  5  8  1  0  0  0  0
  8  9  1  0  0  0  0
  9 10  1  0  0  0  0
 10 11  1  0  0  0  0
 11 12  2  0  0  0  0
 12 13  1  0  0  0  0
 13 14  4  0  0  0  0
 14 15  4  0  0  0  0
 15 16  4  0  0  0  0
 16 17  4  0  0  0  0
 13 17  4  0  0  0  0
 17 18  1  0  0  0  0
 18 19  4  0  0  0  0
 19 20  4  0  0  0  0
 20 21  4  0  0  0  0
 21 22  1  0  0  0  0
 21 23  4  0  0  0  0
 23 24  4  0  0  0  0
 18 24  4  0  0  0  0
 14 25  1  0  0  0  0
 26 25  1  0  0  0  0
 26 11  1  0  0  0  0
 26 27  1  1  0  0  0
 27 28  2  0  0  0  0
 27 29  1  0  0  0  0
 29 30  4  0  0  0  0
 30 31  4  0  0  0  0
 31 32  1  0  0  0  0
 32 33  1  0  0  0  0
 32 34  1  0  0  0  0
 32 35  1  0  0  0  0
 31 36  4  0  0  0  0
 36 37  4  0  0  0  0
 37 38  4  0  0  0  0
 29 38  4  0  0  0  0
 26 39  1  0  0  0  0
  8 39  1  0  0  0  0
  4 40  4  0  0  0  0
 40 41  4  0  0  0  0
  2 41  4  0  0  0  0
M  END
>  <CdId>
386

>  <Mol Weight>
586.57

>  <Formula>
C27H22F4N6O3S

>  <Molecule ChEMBL ID>
CHEMBL4068611

>  <Molecule Name>
RELACORILANT

>  <Molecule Max Phase>
3

>  <Molecular Weight>
586.57

>  <#RO5 Violations>
1

>  <AlogP>
4.06

>  <Compound Key>
7

>  <Standard Type>
IC50

>  <Standard Relation>
'='

>  <Standard Value>
210.0

>  <Standard Units>
nM

$$$$

  Mrv2114 03112311372D          

 13 11  0  0  0  0            999 V2000
    0.9093    1.0500    0.0000 C   0  0  0  0  0  0  0  0  0  0  0  0
    0.9093    0.2250    0.0000 C   0  0  0  0  0  0  0  0  0  0  0  0
    1.6238   -0.1875    0.0000 C   0  0  0  0  0  0  0  0  0  0  0  0
    1.6238   -1.0125    0.0000 C   0  0  0  0  0  0  0  0  0  0  0  0
    0.9093   -1.4250    0.0000 N   0  0  0  0  0  0  0  0  0  0  0  0
    0.1949   -1.0125    0.0000 C   0  0  0  0  0  0  0  0  0  0  0  0
    0.1949   -0.1875    0.0000 C   0  0  0  0  0  0  0  0  0  0  0  0
   -0.5196    0.2250    0.0000 C   0  0  0  0  0  0  0  0  0  0  0  0
   -1.2341    0.6375    0.0000 C   0  0  0  0  0  0  0  0  0  0  0  0
   -1.9486    1.0500    0.0000 C   0  0  0  0  0  0  0  0  0  0  0  0
   -2.6630    0.6375    0.0000 N   0  0  0  0  0  0  0  0  0  0  0  0
    3.6274    0.0000    0.0000 Cl  0  0  0  0  0  0  0  0  0  0  0  0
    0.0000   -3.0750    0.0000 Cl  0  0  0  0  0  0  0  0  0  0  0  0
  1  2  1  0  0  0  0
  2  3  4  0  0  0  0
  3  4  4  0  0  0  0
  4  5  4  0  0  0  0
  5  6  4  0  0  0  0
  6  7  4  0  0  0  0
  2  7  4  0  0  0  0
  7  8  1  0  0  0  0
  8  9  3  0  0  0  0
  9 10  1  0  0  0  0
 10 11  1  0  0  0  0
M  END
>  <CdId>
387

>  <Mol Weight>
219.11

>  <Formula>
C9H12Cl2N2

>  <Molecule ChEMBL ID>
CHEMBL4173088

>  <Molecule Max Phase>
None

>  <Molecular Weight>
219.12

>  <#RO5 Violations>
0

>  <AlogP>
0.7

>  <Compound Key>
4g

>  <Standard Type>
IC50

>  <Standard Relation>
'='

>  <Standard Value>
8600.0

>  <Standard Units>
nM

$$$$

  Mrv2114 03112311372D          

 18 20  0  0  0  0            999 V2000
    4.0668    2.3479    0.0000 N   0  0  0  0  0  0  0  0  0  0  0  0
    3.3523    1.9354    0.0000 C   0  0  0  0  0  0  0  0  0  0  0  0
    3.3523    1.1104    0.0000 N   0  0  0  0  0  0  0  0  0  0  0  0
    2.6378    0.6979    0.0000 C   0  0  0  0  0  0  0  0  0  0  0  0
    2.6378   -0.1271    0.0000 O   0  0  0  0  0  0  0  0  0  0  0  0
    3.3523   -0.5396    0.0000 C   0  0  0  0  0  0  0  0  0  0  0  0
    3.3523   -1.3646    0.0000 C   0  0  0  0  0  0  0  0  0  0  0  0
    4.0668   -1.7771    0.0000 C   0  0  0  0  0  0  0  0  0  0  0  0
    4.0668   -2.6021    0.0000 C   0  0  0  0  0  0  0  0  0  0  0  0
    3.3523   -3.0146    0.0000 C   0  0  0  0  0  0  0  0  0  0  0  0
    2.6378   -2.6021    0.0000 C   0  0  0  0  0  0  0  0  0  0  0  0
    2.6378   -1.7771    0.0000 C   0  0  0  0  0  0  0  0  0  0  0  0
    1.9233    1.1104    0.0000 C   0  0  0  0  0  0  0  0  0  0  0  0
    1.1387    0.8555    0.0000 N   0  0  0  0  0  0  0  0  0  0  0  0
    0.6538    1.5229    0.0000 N   0  0  0  0  0  0  0  0  0  0  0  0
    1.1387    2.1904    0.0000 N   0  0  0  0  0  0  0  0  0  0  0  0
    1.9233    1.9354    0.0000 C   0  0  0  0  0  0  0  0  0  0  0  0
    2.6378    2.3479    0.0000 N   0  0  0  0  0  0  0  0  0  0  0  0
  1  2  1  0  0  0  0
  2  3  4  0  0  0  0
  3  4  4  0  0  0  0
  4  5  1  0  0  0  0
  5  6  1  0  0  0  0
  6  7  1  0  0  0  0
  7  8  4  0  0  0  0
  8  9  4  0  0  0  0
  9 10  4  0  0  0  0
 10 11  4  0  0  0  0
 11 12  4  0  0  0  0
  7 12  4  0  0  0  0
  4 13  4  0  0  0  0
 13 14  4  0  0  0  0
 14 15  4  0  0  0  0
 15 16  4  0  0  0  0
 16 17  4  0  0  0  0
 13 17  4  0  0  0  0
 17 18  4  0  0  0  0
  2 18  4  0  0  0  0
M  STY  1   1 DAT
M  SAL   1  1  14
M  SDT   1 MRV_IMPLICIT_H                                        
M  SDD   1     0.0000    0.0000    DR    ALL  0       0  
M  SED   1 IMPL_H1
M  END
>  <CdId>
388

>  <Mol Weight>
242.242

>  <Formula>
C11H10N6O

>  <Molecule ChEMBL ID>
CHEMBL333928

>  <Molecule Max Phase>
None

>  <Molecular Weight>
242.24

>  <#RO5 Violations>
0

>  <AlogP>
0.91

>  <Compound Key>
5

>  <Standard Type>
IC50

>  <Standard Relation>
'>'

>  <Standard Value>
10000.0

>  <Standard Units>
nM

$$$$

  Mrv2114 03112311372D          

 32 35  0  0  0  0            999 V2000
    5.7158   -3.3000    0.0000 C   0  0  0  0  0  0  0  0  0  0  0  0
    5.7158   -2.4750    0.0000 C   0  0  0  0  0  0  0  0  0  0  0  0
    5.0013   -2.0625    0.0000 C   0  0  0  0  0  0  0  0  0  0  0  0
    5.0013   -1.2375    0.0000 C   0  0  0  0  0  0  0  0  0  0  0  0
    5.7158   -0.8250    0.0000 C   0  0  0  0  0  0  0  0  0  0  0  0
    5.7158    0.0000    0.0000 C   0  0  0  0  0  0  0  0  0  0  0  0
    6.4302    0.4125    0.0000 N   0  0  0  0  0  0  0  0  0  0  0  0
    7.1447    0.0000    0.0000 C   0  0  0  0  0  0  0  0  0  0  0  0
    7.8592    0.4125    0.0000 C   0  0  0  0  0  0  0  0  0  0  0  0
    8.5737    0.0000    0.0000 N   0  0  0  0  0  0  0  0  0  0  0  0
    9.2881    0.4125    0.0000 C   0  0  0  0  0  0  0  0  0  0  0  0
    9.2881    1.2375    0.0000 C   0  0  0  0  0  0  0  0  0  0  0  0
   10.0026    1.6500    0.0000 C   0  0  0  0  0  0  0  0  0  0  0  0
   10.7171    1.2375    0.0000 N   0  0  0  0  0  0  0  0  0  0  0  0
   10.7171    0.4125    0.0000 C   0  0  0  0  0  0  0  0  0  0  0  0
   11.4315    0.0000    0.0000 C   0  0  0  0  0  0  0  0  0  0  0  0
   11.4315   -0.8250    0.0000 C   0  0  0  0  0  0  0  0  0  0  0  0
   12.1460   -1.2375    0.0000 Cl  0  0  0  0  0  0  0  0  0  0  0  0
   10.7171   -1.2375    0.0000 C   0  0  0  0  0  0  0  0  0  0  0  0
   10.0026   -0.8250    0.0000 C   0  0  0  0  0  0  0  0  0  0  0  0
   10.0026    0.0000    0.0000 C   0  0  0  0  0  0  0  0  0  0  0  0
    5.0013    0.4125    0.0000 C   0  0  0  0  0  0  0  0  0  0  0  0
    4.2476    0.0769    0.0000 N   0  0  0  0  0  0  0  0  0  0  0  0
    3.6956    0.6900    0.0000 N   0  0  0  0  0  0  0  0  0  0  0  0
    4.1081    1.4045    0.0000 N   0  0  0  0  0  0  0  0  0  0  0  0
    4.9151    1.2330    0.0000 N   0  0  0  0  0  0  0  0  0  0  0  0
    5.5282    1.7850    0.0000 C   0  0  0  0  0  0  0  0  0  0  0  0
    6.1412    2.3370    0.0000 C   0  0  0  0  0  0  0  0  0  0  0  0
    6.0802    1.1719    0.0000 C   0  0  0  0  0  0  0  0  0  0  0  0
    4.9761    2.3981    0.0000 C   0  0  0  0  0  0  0  0  0  0  0  0
    6.4302   -1.2375    0.0000 C   0  0  0  0  0  0  0  0  0  0  0  0
    6.4302   -2.0625    0.0000 C   0  0  0  0  0  0  0  0  0  0  0  0
  1  2  1  0  0  0  0
  2  3  4  0  0  0  0
  3  4  4  0  0  0  0
  4  5  4  0  0  0  0
  5  6  1  0  0  0  0
  6  7  1  0  0  0  0
  7  8  1  0  0  0  0
  8  9  1  0  0  0  0
  9 10  1  0  0  0  0
 10 11  1  0  0  0  0
 11 12  4  0  0  0  0
 12 13  4  0  0  0  0
 13 14  4  0  0  0  0
 14 15  4  0  0  0  0
 15 16  4  0  0  0  0
 16 17  4  0  0  0  0
 17 18  1  0  0  0  0
 17 19  4  0  0  0  0
 19 20  4  0  0  0  0
 20 21  4  0  0  0  0
 11 21  4  0  0  0  0
 15 21  4  0  0  0  0
  6 22  1  0  0  0  0
 22 23  4  0  0  0  0
 23 24  4  0  0  0  0
 24 25  4  0  0  0  0
 25 26  4  0  0  0  0
 22 26  4  0  0  0  0
 26 27  1  0  0  0  0
 27 28  1  0  0  0  0
 27 29  1  0  0  0  0
 27 30  1  0  0  0  0
  5 31  4  0  0  0  0
 31 32  4  0  0  0  0
  2 32  4  0  0  0  0
M  END
>  <CdId>
389

>  <Mol Weight>
449.99

>  <Formula>
C24H28ClN7

>  <Molecule ChEMBL ID>
CHEMBL3099819

>  <Molecule Max Phase>
None

>  <Molecular Weight>
449.99

>  <#RO5 Violations>
0

>  <AlogP>
4.73

>  <Compound Key>
3c

>  <Standard Type>
IC50

>  <Standard Relation>
'='

>  <Standard Value>
3980.0

>  <Standard Units>
nM

$$$$

  Mrv2114 03112311372D          

 19 20  0  0  0  0            999 V2000
    0.0000   -0.8250    0.0000 C   0  0  0  0  0  0  0  0  0  0  0  0
    0.0000   -0.0000    0.0000 B   0  0  0  0  0  0  0  0  0  0  0  0
   -0.7145    0.4125    0.0000 C   0  0  0  0  0  0  0  0  0  0  0  0
   -0.7145    1.2375    0.0000 C   0  0  0  0  0  0  0  0  0  0  0  0
   -0.0000    1.6500    0.0000 C   0  0  0  0  0  0  0  0  0  0  0  0
    0.0000    2.4750    0.0000 C   0  0  0  0  0  0  0  0  0  0  0  0
    0.7145    2.8875    0.0000 C   0  0  0  0  0  0  0  0  0  0  0  0
    1.4289    2.4750    0.0000 C   0  0  0  0  0  0  0  0  0  0  0  0
    1.4289    1.6500    0.0000 C   0  0  0  0  0  0  0  0  0  0  0  0
    2.1434    1.2375    0.0000 O   0  0  0  0  0  0  0  0  0  0  0  0
    2.8579    1.6500    0.0000 C   0  0  0  0  0  0  0  0  0  0  0  0
    3.5724    1.2375    0.0000 C   0  0  0  0  0  0  0  0  0  0  0  0
    3.5724    0.4125    0.0000 O   0  0  0  0  0  0  0  0  0  0  0  0
    4.2868    1.6500    0.0000 C   0  0  0  0  0  0  0  0  0  0  0  0
    5.0013    1.2375    0.0000 N   0  0  0  0  0  0  0  0  0  0  0  0
    5.7158    1.6500    0.0000 C   0  0  0  0  0  0  0  0  0  0  0  0
    5.0013    0.4125    0.0000 C   0  0  0  0  0  0  0  0  0  0  0  0
    0.7145    1.2375    0.0000 C   0  0  0  0  0  0  0  0  0  0  0  0
    0.7145    0.4125    0.0000 N   0  0  0  0  0  0  0  0  0  0  0  0
  1  2  1  0  0  0  0
  2  3  1  0  0  0  0
  3  4  2  0  0  0  0
  4  5  1  0  0  0  0
  5  6  4  0  0  0  0
  6  7  4  0  0  0  0
  7  8  4  0  0  0  0
  8  9  4  0  0  0  0
  9 10  1  0  0  0  0
 10 11  1  0  0  0  0
 11 12  1  0  0  0  0
 12 13  1  0  0  0  0
 12 14  1  0  0  0  0
 14 15  1  0  0  0  0
 15 16  1  0  0  0  0
 15 17  1  0  0  0  0
  9 18  4  0  0  0  0
  5 18  4  0  0  0  0
 18 19  1  0  0  0  0
  2 19  1  0  0  0  0
M  END
>  <CdId>
390

>  <Mol Weight>
260.14

>  <Formula>
C14H21BN2O2

>  <Molecule ChEMBL ID>
CHEMBL3736433

>  <Molecule Max Phase>
None

>  <Molecular Weight>
260.15

>  <#RO5 Violations>
None

>  <AlogP>
None

>  <Compound Key>
2

>  <Standard Type>
IC50

>  <Standard Relation>
'>'

>  <Standard Value>
10000.0

>  <Standard Units>
nM

$$$$

  Mrv2114 03112311372D          

 22 24  0  0  0  0            999 V2000
    1.4289   -2.4750    0.0000 O   0  0  0  0  0  0  0  0  0  0  0  0
    1.4289   -1.6500    0.0000 C   0  0  0  0  0  0  0  0  0  0  0  0
    0.7145   -1.2375    0.0000 C   0  0  0  0  0  0  0  0  0  0  0  0
    0.0000   -1.6500    0.0000 O   0  0  0  0  0  0  0  0  0  0  0  0
    0.7145   -0.4125    0.0000 C   0  0  0  0  0  0  0  0  0  0  0  0
    0.0000    0.0000    0.0000 C   0  0  0  0  0  0  0  0  0  0  0  0
   -0.7145   -0.4125    0.0000 C   0  0  0  0  0  0  0  0  0  0  0  0
   -1.4289    0.0000    0.0000 C   0  0  0  0  0  0  0  0  0  0  0  0
   -1.4289    0.8250    0.0000 C   0  0  0  0  0  0  0  0  0  0  0  0
   -2.1434    1.2375    0.0000 O   0  0  0  0  0  0  0  0  0  0  0  0
   -0.7145    1.2375    0.0000 C   0  0  0  0  0  0  0  0  0  0  0  0
   -0.7145    2.0625    0.0000 O   0  0  0  0  0  0  0  0  0  0  0  0
    0.0000    0.8250    0.0000 C   0  0  0  0  0  0  0  0  0  0  0  0
    1.4289    0.0000    0.0000 O   0  0  0  0  0  0  0  0  0  0  0  0
    2.1434   -0.4125    0.0000 C   0  0  0  0  0  0  0  0  0  0  0  0
    2.8579    0.0000    0.0000 C   0  0  0  0  0  0  0  0  0  0  0  0
    3.5724   -0.4125    0.0000 C   0  0  0  0  0  0  0  0  0  0  0  0
    4.2868   -0.0000    0.0000 O   0  0  0  0  0  0  0  0  0  0  0  0
    3.5724   -1.2375    0.0000 C   0  0  0  0  0  0  0  0  0  0  0  0
    2.8579   -1.6500    0.0000 C   0  0  0  0  0  0  0  0  0  0  0  0
    2.8579   -2.4750    0.0000 O   0  0  0  0  0  0  0  0  0  0  0  0
    2.1434   -1.2375    0.0000 C   0  0  0  0  0  0  0  0  0  0  0  0
  1  2  2  0  0  0  0
  2  3  4  0  0  0  0
  3  4  1  0  0  0  0
  3  5  4  0  0  0  0
  5  6  1  0  0  0  0
  6  7  4  0  0  0  0
  7  8  4  0  0  0  0
  8  9  4  0  0  0  0
  9 10  1  0  0  0  0
  9 11  4  0  0  0  0
 11 12  1  0  0  0  0
 11 13  4  0  0  0  0
  6 13  4  0  0  0  0
  5 14  4  0  0  0  0
 14 15  4  0  0  0  0
 15 16  4  0  0  0  0
 16 17  4  0  0  0  0
 17 18  1  0  0  0  0
 17 19  4  0  0  0  0
 19 20  4  0  0  0  0
 20 21  1  0  0  0  0
 20 22  4  0  0  0  0
  2 22  4  0  0  0  0
 15 22  4  0  0  0  0
M  END
>  <CdId>
391

>  <Mol Weight>
302.238

>  <Formula>
C15H10O7

>  <Molecule ChEMBL ID>
CHEMBL50

>  <Molecule Name>
QUERCETIN

>  <Molecule Max Phase>
3

>  <Molecular Weight>
302.24

>  <#RO5 Violations>
0

>  <AlogP>
1.99

>  <Compound Key>
Quercetin

>  <Standard Type>
IC50

>  <Standard Relation>
'='

>  <Standard Value>
1390.0

>  <Standard Units>
nM

$$$$

  Mrv2114 03112311372D          

 28 31  0  0  0  0            999 V2000
    5.4896   -1.6384    0.0000 O   0  0  0  0  0  0  0  0  0  0  0  0
    5.6358   -0.8265    0.0000 C   0  0  0  0  0  0  0  0  0  0  0  0
    5.0058   -0.2939    0.0000 C   0  0  0  0  0  0  0  0  0  0  0  0
    4.2295   -0.5732    0.0000 C   0  0  0  0  0  0  0  0  0  0  0  0
    3.5995   -0.0406    0.0000 C   0  0  0  0  0  0  0  0  0  0  0  0
    3.6601    0.7822    0.0000 N   0  0  0  0  0  0  0  0  0  0  0  0
    2.8963    1.0941    0.0000 N   0  0  0  0  0  0  0  0  0  0  0  0
    2.3637    0.4640    0.0000 C   0  0  0  0  0  0  0  0  0  0  0  0
    2.7983   -0.2372    0.0000 C   0  0  0  0  0  0  0  0  0  0  0  0
    2.4083   -0.9642    0.0000 C   0  0  0  0  0  0  0  0  0  0  0  0
    1.5837   -0.9900    0.0000 C   0  0  0  0  0  0  0  0  0  0  0  0
    1.1491   -0.2887    0.0000 C   0  0  0  0  0  0  0  0  0  0  0  0
    0.3245   -0.3145    0.0000 C   0  0  0  0  0  0  0  0  0  0  0  0
   -0.1101    0.3867    0.0000 C   0  0  0  0  0  0  0  0  0  0  0  0
   -0.9347    0.3610    0.0000 O   0  0  0  0  0  0  0  0  0  0  0  0
    0.2799    1.1137    0.0000 C   0  0  0  0  0  0  0  0  0  0  0  0
    1.1045    1.1395    0.0000 C   0  0  0  0  0  0  0  0  0  0  0  0
    1.5391    0.4383    0.0000 C   0  0  0  0  0  0  0  0  0  0  0  0
    6.4121   -0.5472    0.0000 N   0  0  0  0  0  0  0  0  0  0  0  0
    7.0422   -1.0798    0.0000 C   0  0  0  0  0  0  0  0  0  0  0  0
    6.8959   -1.8917    0.0000 C   0  0  0  0  0  0  0  0  0  0  0  0
    7.5259   -2.4243    0.0000 C   0  0  0  0  0  0  0  0  0  0  0  0
    8.3022   -2.1450    0.0000 C   0  0  0  0  0  0  0  0  0  0  0  0
    8.4485   -1.3331    0.0000 C   0  0  0  0  0  0  0  0  0  0  0  0
    7.8184   -0.8005    0.0000 C   0  0  0  0  0  0  0  0  0  0  0  0
    7.9647    0.0115    0.0000 C   0  0  0  0  0  0  0  0  0  0  0  0
    7.3346    0.5441    0.0000 O   0  0  0  0  0  0  0  0  0  0  0  0
    8.7410    0.2908    0.0000 O   0  0  0  0  0  0  0  0  0  0  0  0
  1  2  2  0  0  0  0
  2  3  1  0  0  0  0
  3  4  1  0  0  0  0
  4  5  1  0  0  0  0
  5  6  4  0  0  0  0
  6  7  4  0  0  0  0
  7  8  4  0  0  0  0
  8  9  4  0  0  0  0
  5  9  4  0  0  0  0
  9 10  1  0  0  0  0
 10 11  1  0  0  0  0
 11 12  1  0  0  0  0
 12 13  4  0  0  0  0
 13 14  4  0  0  0  0
 14 15  1  0  0  0  0
 14 16  4  0  0  0  0
 16 17  4  0  0  0  0
 17 18  4  0  0  0  0
 12 18  4  0  0  0  0
  8 18  1  0  0  0  0
  2 19  1  0  0  0  0
 19 20  1  0  0  0  0
 20 21  4  0  0  0  0
 21 22  4  0  0  0  0
 22 23  4  0  0  0  0
 23 24  4  0  0  0  0
 24 25  4  0  0  0  0
 20 25  4  0  0  0  0
 25 26  1  0  0  0  0
 26 27  2  0  0  0  0
 26 28  1  0  0  0  0
M  STY  1   1 DAT
M  SAL   1  1   6
M  SDT   1 MRV_IMPLICIT_H                                        
M  SDD   1     0.0000    0.0000    DR    ALL  0       0  
M  SED   1 IMPL_H1
M  END
>  <CdId>
392

>  <Mol Weight>
377.4

>  <Formula>
C21H19N3O4

>  <Molecule ChEMBL ID>
CHEMBL520136

>  <Molecule Max Phase>
None

>  <Molecular Weight>
377.4

>  <#RO5 Violations>
0

>  <AlogP>
3.15

>  <Compound Key>
2a

>  <Standard Type>
IC50

>  <Standard Relation>
'='

>  <Standard Value>
23000.0

>  <Standard Units>
nM

$$$$

  Mrv2114 03112311372D          

 16 17  0  0  0  0            999 V2000
    2.1434   -1.2375    0.0000 O   0  0  0  0  0  0  0  0  0  0  0  0
    1.4289   -1.6500    0.0000 C   0  0  0  0  0  0  0  0  0  0  0  0
    0.7145   -1.2375    0.0000 N   0  0  0  0  0  0  0  0  0  0  0  0
    0.7145   -0.4125    0.0000 C   0  0  0  0  0  0  0  0  0  0  0  0
    0.0000    0.0000    0.0000 C   0  0  0  0  0  0  0  0  0  0  0  0
    0.0000    0.8250    0.0000 C   0  0  0  0  0  0  0  0  0  0  0  0
    0.7145    1.2375    0.0000 C   0  0  0  0  0  0  0  0  0  0  0  0
    0.7145    2.0625    0.0000 Cl  0  0  0  0  0  0  0  0  0  0  0  0
    1.4289    0.8250    0.0000 C   0  0  0  0  0  0  0  0  0  0  0  0
    1.4289    0.0000    0.0000 C   0  0  0  0  0  0  0  0  0  0  0  0
    2.1434   -0.4125    0.0000 Cl  0  0  0  0  0  0  0  0  0  0  0  0
    1.4289   -2.4750    0.0000 C   0  0  0  0  0  0  0  0  0  0  0  0
    2.0964   -2.9599    0.0000 C   0  0  0  0  0  0  0  0  0  0  0  0
    1.8414   -3.7445    0.0000 N   0  0  0  0  0  0  0  0  0  0  0  0
    1.0164   -3.7445    0.0000 N   0  0  0  0  0  0  0  0  0  0  0  0
    0.7615   -2.9599    0.0000 N   0  0  0  0  0  0  0  0  0  0  0  0
  1  2  2  0  0  0  0
  2  3  1  0  0  0  0
  3  4  1  0  0  0  0
  4  5  4  0  0  0  0
  5  6  4  0  0  0  0
  6  7  4  0  0  0  0
  7  8  1  0  0  0  0
  7  9  4  0  0  0  0
  9 10  4  0  0  0  0
  4 10  4  0  0  0  0
 10 11  1  0  0  0  0
  2 12  1  0  0  0  0
 12 13  4  0  0  0  0
 13 14  4  0  0  0  0
 14 15  4  0  0  0  0
 15 16  4  0  0  0  0
 12 16  4  0  0  0  0
M  STY  1   1 DAT
M  SAL   1  1  15
M  SDT   1 MRV_IMPLICIT_H                                        
M  SDD   1     0.0000    0.0000    DR    ALL  0       0  
M  SED   1 IMPL_H1
M  END
>  <CdId>
393

>  <Mol Weight>
257.07

>  <Formula>
C9H6Cl2N4O

>  <Molecule ChEMBL ID>
CHEMBL3604174

>  <Molecule Max Phase>
None

>  <Molecular Weight>
257.08

>  <#RO5 Violations>
0

>  <AlogP>
2.36

>  <Compound Key>
5, BLX-2477

>  <Standard Type>
IC50

$$$$

  Mrv2114 03112311372D          

 29 33  0  0  1  0            999 V2000
   -2.6198   -4.6879    0.0000 C   0  0  0  0  0  0  0  0  0  0  0  0
   -2.4483   -3.8809    0.0000 C   0  0  0  0  0  0  0  0  0  0  0  0
   -1.6636   -3.6260    0.0000 N   0  0  0  0  0  0  0  0  0  0  0  0
   -0.9962   -4.1109    0.0000 N   0  0  0  0  0  0  0  0  0  0  0  0
   -0.3288   -3.6260    0.0000 C   0  0  0  0  0  0  0  0  0  0  0  0
   -0.5837   -2.8414    0.0000 C   0  0  0  0  0  0  0  0  0  0  0  0
   -1.4087   -2.8414    0.0000 C   0  0  0  0  0  0  0  0  0  0  0  0
   -1.8212   -2.1269    0.0000 C   0  0  0  0  0  0  0  0  0  0  0  0
   -1.4087   -1.4124    0.0000 C   0  0  0  0  0  0  0  0  0  0  0  0
   -0.5837   -1.4124    0.0000 C   0  0  1  0  0  0  0  0  0  0  0  0
   -0.1712   -0.6979    0.0000 N   0  0  0  0  0  0  0  0  0  0  0  0
    0.6538   -0.6979    0.0000 C   0  0  0  0  0  0  0  0  0  0  0  0
    1.1387   -0.0305    0.0000 N   0  0  0  0  0  0  0  0  0  0  0  0
    1.9233   -0.2854    0.0000 C   0  0  0  0  0  0  0  0  0  0  0  0
    2.6378    0.1271    0.0000 C   0  0  0  0  0  0  0  0  0  0  0  0
    2.6378    0.9521    0.0000 C   0  0  0  0  0  0  0  0  0  0  0  0
    1.9233    1.3646    0.0000 C   0  0  0  0  0  0  0  0  0  0  0  0
    1.9233    2.1896    0.0000 C   0  0  0  0  0  0  0  0  0  0  0  0
    2.6378    2.6021    0.0000 C   0  0  0  0  0  0  0  0  0  0  0  0
    2.6378    3.4271    0.0000 F   0  0  0  0  0  0  0  0  0  0  0  0
    3.3523    2.1896    0.0000 C   0  0  0  0  0  0  0  0  0  0  0  0
    3.3523    1.3646    0.0000 C   0  0  0  0  0  0  0  0  0  0  0  0
    4.0668    0.9521    0.0000 C   0  0  0  0  0  0  0  0  0  0  0  0
    3.3523   -0.2854    0.0000 C   0  0  0  0  0  0  0  0  0  0  0  0
    3.3523   -1.1104    0.0000 C   0  0  0  0  0  0  0  0  0  0  0  0
    2.6378   -1.5229    0.0000 C   0  0  0  0  0  0  0  0  0  0  0  0
    1.9233   -1.1104    0.0000 N   0  0  0  0  0  0  0  0  0  0  0  0
    1.1387   -1.3654    0.0000 N   0  0  0  0  0  0  0  0  0  0  0  0
   -0.1712   -2.1269    0.0000 C   0  0  0  0  0  0  0  0  0  0  0  0
  1  2  1  0  0  0  0
  2  3  1  0  0  0  0
  3  4  4  0  0  0  0
  4  5  4  0  0  0  0
  5  6  4  0  0  0  0
  6  7  4  0  0  0  0
  3  7  4  0  0  0  0
  7  8  1  0  0  0  0
  8  9  1  0  0  0  0
 10  9  1  0  0  0  0
 10 11  1  1  0  0  0
 11 12  1  0  0  0  0
 12 13  4  0  0  0  0
 13 14  4  0  0  0  0
 14 15  4  0  0  0  0
 15 16  1  0  0  0  0
 16 17  4  0  0  0  0
 17 18  4  0  0  0  0
 18 19  4  0  0  0  0
 19 20  1  0  0  0  0
 19 21  4  0  0  0  0
 21 22  4  0  0  0  0
 16 22  4  0  0  0  0
 22 23  1  0  0  0  0
 15 24  4  0  0  0  0
 24 25  4  0  0  0  0
 25 26  4  0  0  0  0
 26 27  4  0  0  0  0
 14 27  4  0  0  0  0
 27 28  4  0  0  0  0
 12 28  4  0  0  0  0
 10 29  1  0  0  0  0
  6 29  1  0  0  0  0
M  END
>  <CdId>
394

>  <Mol Weight>
390.466

>  <Formula>
C22H23FN6

>  <Molecule ChEMBL ID>
CHEMBL4127978

>  <Molecule Max Phase>
None

>  <Molecular Weight>
390.47

>  <#RO5 Violations>
0

>  <AlogP>
4.03

>  <Compound Key>
(R)-42

>  <Standard Type>
IC50

>  <Standard Relation>
'='

>  <Standard Value>
9500.0

>  <Standard Units>
nM

$$$$

  Mrv2114 03112311372D          

 23 25  0  0  0  0            999 V2000
    1.3222   -0.8866    0.0000 C   0  0  0  0  0  0  0  0  0  0  0  0
    2.0367   -1.2991    0.0000 N   0  0  0  0  0  0  0  0  0  0  0  0
    2.0367   -2.1241    0.0000 C   0  0  0  0  0  0  0  0  0  0  0  0
    2.7041   -2.6090    0.0000 C   0  0  0  0  0  0  0  0  0  0  0  0
    2.4492   -3.3937    0.0000 C   0  0  0  0  0  0  0  0  0  0  0  0
    1.6242   -3.3937    0.0000 N   0  0  0  0  0  0  0  0  0  0  0  0
    1.3693   -2.6090    0.0000 N   0  0  0  0  0  0  0  0  0  0  0  0
    0.5846   -2.3541    0.0000 C   0  0  0  0  0  0  0  0  0  0  0  0
   -0.0284   -2.9061    0.0000 C   0  0  0  0  0  0  0  0  0  0  0  0
   -0.8131   -2.6512    0.0000 C   0  0  0  0  0  0  0  0  0  0  0  0
   -0.9846   -1.8442    0.0000 C   0  0  0  0  0  0  0  0  0  0  0  0
   -0.3715   -1.2922    0.0000 C   0  0  0  0  0  0  0  0  0  0  0  0
    0.4131   -1.5471    0.0000 C   0  0  0  0  0  0  0  0  0  0  0  0
    2.7512   -0.8866    0.0000 S   0  0  0  0  0  0  0  0  0  0  0  0
    3.1637   -1.6011    0.0000 O   0  0  0  0  0  0  0  0  0  0  0  0
    2.3387   -0.1721    0.0000 O   0  0  0  0  0  0  0  0  0  0  0  0
    3.4656   -0.4741    0.0000 C   0  0  0  0  0  0  0  0  0  0  0  0
    3.4656    0.3509    0.0000 C   0  0  0  0  0  0  0  0  0  0  0  0
    4.1801    0.7634    0.0000 C   0  0  0  0  0  0  0  0  0  0  0  0
    4.8946    0.3509    0.0000 C   0  0  0  0  0  0  0  0  0  0  0  0
    5.6091    0.7634    0.0000 N   0  0  0  0  0  0  0  0  0  0  0  0
    4.8946   -0.4741    0.0000 C   0  0  0  0  0  0  0  0  0  0  0  0
    4.1801   -0.8866    0.0000 C   0  0  0  0  0  0  0  0  0  0  0  0
  1  2  1  0  0  0  0
  2  3  1  0  0  0  0
  3  4  4  0  0  0  0
  4  5  4  0  0  0  0
  5  6  4  0  0  0  0
  6  7  4  0  0  0  0
  3  7  4  0  0  0  0
  7  8  1  0  0  0  0
  8  9  4  0  0  0  0
  9 10  4  0  0  0  0
 10 11  4  0  0  0  0
 11 12  4  0  0  0  0
 12 13  4  0  0  0  0
  8 13  4  0  0  0  0
  2 14  1  0  0  0  0
 14 15  2  0  0  0  0
 14 16  2  0  0  0  0
 14 17  1  0  0  0  0
 17 18  4  0  0  0  0
 18 19  4  0  0  0  0
 19 20  4  0  0  0  0
 20 21  1  0  0  0  0
 20 22  4  0  0  0  0
 22 23  4  0  0  0  0
 17 23  4  0  0  0  0
M  END
>  <CdId>
395

>  <Mol Weight>
328.39

>  <Formula>
C16H16N4O2S

>  <Molecule ChEMBL ID>
CHEMBL443542

>  <Molecule Max Phase>
None

>  <Molecular Weight>
328.4

>  <#RO5 Violations>
0

>  <AlogP>
2.28

>  <Compound Key>
6

>  <Standard Type>
IC50

>  <Standard Relation>
'='

>  <Standard Value>
50000.0

>  <Standard Units>
nM

$$$$

  Mrv2114 03112311372D          

 32 35  0  0  0  0            999 V2000
    6.1412    2.3370    0.0000 C   0  0  0  0  0  0  0  0  0  0  0  0
    5.5282    1.7850    0.0000 C   0  0  0  0  0  0  0  0  0  0  0  0
    4.9761    2.3981    0.0000 C   0  0  0  0  0  0  0  0  0  0  0  0
    6.0802    1.1719    0.0000 C   0  0  0  0  0  0  0  0  0  0  0  0
    4.9151    1.2330    0.0000 N   0  0  0  0  0  0  0  0  0  0  0  0
    4.1081    1.4045    0.0000 N   0  0  0  0  0  0  0  0  0  0  0  0
    3.6956    0.6900    0.0000 N   0  0  0  0  0  0  0  0  0  0  0  0
    4.2476    0.0769    0.0000 N   0  0  0  0  0  0  0  0  0  0  0  0
    5.0013    0.4125    0.0000 C   0  0  0  0  0  0  0  0  0  0  0  0
    5.7158    0.0000    0.0000 C   0  0  0  0  0  0  0  0  0  0  0  0
    6.4302    0.4125    0.0000 N   0  0  0  0  0  0  0  0  0  0  0  0
    7.1447    0.0000    0.0000 C   0  0  0  0  0  0  0  0  0  0  0  0
    7.8592    0.4125    0.0000 C   0  0  0  0  0  0  0  0  0  0  0  0
    8.5737    0.0000    0.0000 N   0  0  0  0  0  0  0  0  0  0  0  0
    9.2881    0.4125    0.0000 C   0  0  0  0  0  0  0  0  0  0  0  0
    9.2881    1.2375    0.0000 C   0  0  0  0  0  0  0  0  0  0  0  0
   10.0026    1.6500    0.0000 C   0  0  0  0  0  0  0  0  0  0  0  0
   10.7171    1.2375    0.0000 N   0  0  0  0  0  0  0  0  0  0  0  0
   10.7171    0.4125    0.0000 C   0  0  0  0  0  0  0  0  0  0  0  0
   11.4315    0.0000    0.0000 C   0  0  0  0  0  0  0  0  0  0  0  0
   11.4315   -0.8250    0.0000 C   0  0  0  0  0  0  0  0  0  0  0  0
   12.1460   -1.2375    0.0000 Cl  0  0  0  0  0  0  0  0  0  0  0  0
   10.7171   -1.2375    0.0000 C   0  0  0  0  0  0  0  0  0  0  0  0
   10.0026   -0.8250    0.0000 C   0  0  0  0  0  0  0  0  0  0  0  0
   10.0026    0.0000    0.0000 C   0  0  0  0  0  0  0  0  0  0  0  0
    5.7158   -0.8250    0.0000 C   0  0  0  0  0  0  0  0  0  0  0  0
    6.4302   -1.2375    0.0000 C   0  0  0  0  0  0  0  0  0  0  0  0
    6.4302   -2.0625    0.0000 C   0  0  0  0  0  0  0  0  0  0  0  0
    5.7158   -2.4750    0.0000 C   0  0  0  0  0  0  0  0  0  0  0  0
    5.7158   -3.3000    0.0000 Cl  0  0  0  0  0  0  0  0  0  0  0  0
    5.0013   -2.0625    0.0000 C   0  0  0  0  0  0  0  0  0  0  0  0
    5.0013   -1.2375    0.0000 C   0  0  0  0  0  0  0  0  0  0  0  0
  1  2  1  0  0  0  0
  2  3  1  0  0  0  0
  2  4  1  0  0  0  0
  2  5  1  0  0  0  0
  5  6  4  0  0  0  0
  6  7  4  0  0  0  0
  7  8  4  0  0  0  0
  8  9  4  0  0  0  0
  5  9  4  0  0  0  0
  9 10  1  0  0  0  0
 10 11  1  0  0  0  0
 11 12  1  0  0  0  0
 12 13  1  0  0  0  0
 13 14  1  0  0  0  0
 14 15  1  0  0  0  0
 15 16  4  0  0  0  0
 16 17  4  0  0  0  0
 17 18  4  0  0  0  0
 18 19  4  0  0  0  0
 19 20  4  0  0  0  0
 20 21  4  0  0  0  0
 21 22  1  0  0  0  0
 21 23  4  0  0  0  0
 23 24  4  0  0  0  0
 24 25  4  0  0  0  0
 15 25  4  0  0  0  0
 19 25  4  0  0  0  0
 10 26  1  0  0  0  0
 26 27  4  0  0  0  0
 27 28  4  0  0  0  0
 28 29  4  0  0  0  0
 29 30  1  0  0  0  0
 29 31  4  0  0  0  0
 31 32  4  0  0  0  0
 26 32  4  0  0  0  0
M  END
>  <CdId>
396

>  <Mol Weight>
470.4

>  <Formula>
C23H25Cl2N7

>  <Molecule ChEMBL ID>
CHEMBL2414256

>  <Molecule Max Phase>
None

>  <Molecular Weight>
470.41

>  <#RO5 Violations>
1

>  <AlogP>
5.07

>  <Compound Key>
3e

>  <Standard Type>
IC50

>  <Standard Relation>
'='

>  <Standard Value>
12700.0

>  <Standard Units>
nM

$$$$

  Mrv2114 03112311372D          

 40 45  0  0  1  0            999 V2000
   -0.7145   -0.4125    0.0000 C   0  0  0  0  0  0  0  0  0  0  0  0
    0.0000    0.0000    0.0000 C   0  0  2  0  0  0  0  0  0  0  0  0
    0.0000    0.8250    0.0000 N   0  0  0  0  0  0  0  0  0  0  0  0
    0.7145    1.2375    0.0000 C   0  0  0  0  0  0  0  0  0  0  0  0
    1.4289    0.8250    0.0000 O   0  0  0  0  0  0  0  0  0  0  0  0
    0.7145    2.0625    0.0000 C   0  0  0  0  0  0  0  0  0  0  0  0
    0.0470    2.5474    0.0000 C   0  0  0  0  0  0  0  0  0  0  0  0
   -0.7376    2.2925    0.0000 N   0  0  0  0  0  0  0  0  0  0  0  0
    0.3020    3.3320    0.0000 N   0  0  0  0  0  0  0  0  0  0  0  0
    1.1270    3.3320    0.0000 N   0  0  0  0  0  0  0  0  0  0  0  0
    1.6790    3.9451    0.0000 C   0  0  0  0  0  0  0  0  0  0  0  0
    2.4860    3.7736    0.0000 C   0  0  0  0  0  0  0  0  0  0  0  0
    2.7409    2.9890    0.0000 C   0  0  0  0  0  0  0  0  0  0  0  0
    2.1889    2.3759    0.0000 N   0  0  0  0  0  0  0  0  0  0  0  0
    1.3819    2.5474    0.0000 C   0  0  0  0  0  0  0  0  0  0  0  0
    0.7145   -0.4125    0.0000 C   0  0  0  0  0  0  0  0  0  0  0  0
    1.4289    0.0000    0.0000 C   0  0  0  0  0  0  0  0  0  0  0  0
    2.1434   -0.4125    0.0000 C   0  0  0  0  0  0  0  0  0  0  0  0
    2.8579    0.0000    0.0000 C   0  0  0  0  0  0  0  0  0  0  0  0
    3.5724   -0.4125    0.0000 C   0  0  0  0  0  0  0  0  0  0  0  0
    3.5724   -1.2375    0.0000 C   0  0  0  0  0  0  0  0  0  0  0  0
    2.8579   -1.6500    0.0000 C   0  0  0  0  0  0  0  0  0  0  0  0
    2.8579   -2.4750    0.0000 C   0  0  0  0  0  0  0  0  0  0  0  0
    2.8579   -3.3000    0.0000 C   0  0  0  0  0  0  0  0  0  0  0  0
    2.8579   -4.1250    0.0000 C   0  0  0  0  0  0  0  0  0  0  0  0
    2.1904   -4.6099    0.0000 C   0  0  0  0  0  0  0  0  0  0  0  0
    2.4454   -5.3945    0.0000 N   0  0  0  0  0  0  0  0  0  0  0  0
    3.2704   -5.3945    0.0000 N   0  0  0  0  0  0  0  0  0  0  0  0
    3.7553   -6.0620    0.0000 C   0  0  0  0  0  0  0  0  0  0  0  0
    3.5253   -4.6099    0.0000 C   0  0  0  0  0  0  0  0  0  0  0  0
    2.1434   -1.2375    0.0000 C   0  0  0  0  0  0  0  0  0  0  0  0
    1.4289   -1.6500    0.0000 C   0  0  0  0  0  0  0  0  0  0  0  0
    1.4289   -2.4750    0.0000 O   0  0  0  0  0  0  0  0  0  0  0  0
    0.7145   -1.2375    0.0000 N   0  0  0  0  0  0  0  0  0  0  0  0
    0.0000   -1.6500    0.0000 C   0  0  0  0  0  0  0  0  0  0  0  0
    0.0000   -2.4750    0.0000 C   0  0  0  0  0  0  0  0  0  0  0  0
   -0.7145   -2.8875    0.0000 C   0  0  0  0  0  0  0  0  0  0  0  0
   -1.4289   -2.4750    0.0000 C   0  0  0  0  0  0  0  0  0  0  0  0
   -1.4289   -1.6500    0.0000 C   0  0  0  0  0  0  0  0  0  0  0  0
   -0.7145   -1.2375    0.0000 C   0  0  0  0  0  0  0  0  0  0  0  0
  2  1  1  6  0  0  0
  2  3  1  0  0  0  0
  3  4  1  0  0  0  0
  4  5  2  0  0  0  0
  4  6  1  0  0  0  0
  6  7  4  0  0  0  0
  7  8  1  0  0  0  0
  7  9  4  0  0  0  0
  9 10  4  0  0  0  0
 10 11  4  0  0  0  0
 11 12  4  0  0  0  0
 12 13  4  0  0  0  0
 13 14  4  0  0  0  0
 14 15  4  0  0  0  0
  6 15  4  0  0  0  0
 10 15  4  0  0  0  0
  2 16  1  0  0  0  0
 16 17  4  0  0  0  0
 17 18  4  0  0  0  0
 18 19  4  0  0  0  0
 19 20  4  0  0  0  0
 20 21  4  0  0  0  0
 21 22  4  0  0  0  0
 22 23  1  0  0  0  0
 23 24  3  0  0  0  0
 24 25  1  0  0  0  0
 25 26  4  0  0  0  0
 26 27  4  0  0  0  0
 27 28  4  0  0  0  0
 28 29  1  0  0  0  0
 28 30  4  0  0  0  0
 25 30  4  0  0  0  0
 22 31  4  0  0  0  0
 18 31  4  0  0  0  0
 31 32  4  0  0  0  0
 32 33  2  0  0  0  0
 32 34  4  0  0  0  0
 16 34  4  0  0  0  0
 34 35  1  0  0  0  0
 35 36  4  0  0  0  0
 36 37  4  0  0  0  0
 37 38  4  0  0  0  0
 38 39  4  0  0  0  0
 39 40  4  0  0  0  0
 35 40  4  0  0  0  0
M  END
>  <CdId>
397

>  <Mol Weight>
528.576

>  <Formula>
C30H24N8O2

>  <Molecule ChEMBL ID>
CHEMBL3984425

>  <Molecule Name>
EGANELISIB

>  <Molecule Max Phase>
2

>  <Molecular Weight>
528.58

>  <#RO5 Violations>
1

>  <AlogP>
3.24

>  <Compound Key>
26

>  <Standard Type>
IC50

>  <Standard Relation>
'>'

>  <Standard Value>
20000.0

>  <Standard Units>
nM

$$$$

  Mrv2114 03112311372D          

 31 34  0  0  0  0            999 V2000
    2.7512    0.7634    0.0000 C   0  0  0  0  0  0  0  0  0  0  0  0
    2.7512   -0.0616    0.0000 C   0  0  0  0  0  0  0  0  0  0  0  0
    3.4656   -0.4741    0.0000 C   0  0  0  0  0  0  0  0  0  0  0  0
    3.4656   -1.2991    0.0000 C   0  0  0  0  0  0  0  0  0  0  0  0
    2.7512   -1.7116    0.0000 C   0  0  0  0  0  0  0  0  0  0  0  0
    2.7512   -2.5366    0.0000 N   0  0  0  0  0  0  0  0  0  0  0  0
    2.0837   -3.0215    0.0000 N   0  0  0  0  0  0  0  0  0  0  0  0
    2.3387   -3.8062    0.0000 C   0  0  0  0  0  0  0  0  0  0  0  0
    1.8538   -4.4736    0.0000 C   0  0  0  0  0  0  0  0  0  0  0  0
    1.3688   -5.1410    0.0000 C   0  0  0  0  0  0  0  0  0  0  0  0
    1.1863   -3.9887    0.0000 C   0  0  0  0  0  0  0  0  0  0  0  0
    2.5212   -4.9585    0.0000 C   0  0  0  0  0  0  0  0  0  0  0  0
    3.1637   -3.8062    0.0000 C   0  0  0  0  0  0  0  0  0  0  0  0
    3.4186   -3.0215    0.0000 C   0  0  0  0  0  0  0  0  0  0  0  0
    4.2032   -2.7666    0.0000 N   0  0  0  0  0  0  0  0  0  0  0  0
    4.8163   -3.3186    0.0000 C   0  0  0  0  0  0  0  0  0  0  0  0
    4.6448   -4.1256    0.0000 O   0  0  0  0  0  0  0  0  0  0  0  0
    5.6010   -3.0637    0.0000 N   0  0  0  0  0  0  0  0  0  0  0  0
    6.2140   -3.6157    0.0000 C   0  0  0  0  0  0  0  0  0  0  0  0
    6.9987   -3.3608    0.0000 C   0  0  0  0  0  0  0  0  0  0  0  0
    7.6118   -3.9128    0.0000 C   0  0  0  0  0  0  0  0  0  0  0  0
    7.4402   -4.7198    0.0000 C   0  0  0  0  0  0  0  0  0  0  0  0
    8.0533   -5.2718    0.0000 C   0  0  0  0  0  0  0  0  0  0  0  0
    8.8603   -5.1003    0.0000 C   0  0  0  0  0  0  0  0  0  0  0  0
    9.2728   -5.8148    0.0000 N   0  0  0  0  0  0  0  0  0  0  0  0
    8.7208   -6.4279    0.0000 C   0  0  0  0  0  0  0  0  0  0  0  0
    7.9671   -6.0923    0.0000 O   0  0  0  0  0  0  0  0  0  0  0  0
    6.6556   -4.9747    0.0000 C   0  0  0  0  0  0  0  0  0  0  0  0
    6.0425   -4.4227    0.0000 C   0  0  0  0  0  0  0  0  0  0  0  0
    2.0367   -1.2991    0.0000 C   0  0  0  0  0  0  0  0  0  0  0  0
    2.0367   -0.4741    0.0000 C   0  0  0  0  0  0  0  0  0  0  0  0
  1  2  1  0  0  0  0
  2  3  4  0  0  0  0
  3  4  4  0  0  0  0
  4  5  4  0  0  0  0
  5  6  1  0  0  0  0
  6  7  4  0  0  0  0
  7  8  4  0  0  0  0
  8  9  1  0  0  0  0
  9 10  1  0  0  0  0
  9 11  1  0  0  0  0
  9 12  1  0  0  0  0
  8 13  4  0  0  0  0
 13 14  4  0  0  0  0
  6 14  4  0  0  0  0
 14 15  1  0  0  0  0
 15 16  1  0  0  0  0
 16 17  2  0  0  0  0
 16 18  1  0  0  0  0
 18 19  1  0  0  0  0
 19 20  4  0  0  0  0
 20 21  4  0  0  0  0
 21 22  4  0  0  0  0
 22 23  1  0  0  0  0
 23 24  4  0  0  0  0
 24 25  4  0  0  0  0
 25 26  4  0  0  0  0
 26 27  4  0  0  0  0
 23 27  4  0  0  0  0
 22 28  4  0  0  0  0
 28 29  4  0  0  0  0
 19 29  4  0  0  0  0
  5 30  4  0  0  0  0
 30 31  4  0  0  0  0
  2 31  4  0  0  0  0
M  END
>  <CdId>
398

>  <Mol Weight>
415.497

>  <Formula>
C24H25N5O2

>  <Molecule ChEMBL ID>
CHEMBL2425153

>  <Molecule Max Phase>
None

>  <Molecular Weight>
415.5

>  <#RO5 Violations>
1

>  <AlogP>
5.78

>  <Compound Key>
24

>  <Standard Type>
IC50

>  <Standard Relation>
'>'

>  <Standard Value>
10000.0

>  <Standard Units>
nM

$$$$

  Mrv2114 03112311372D          

 32 34  0  0  0  0            999 V2000
   -4.5117   -4.2036    0.0000 C   0  0  0  0  0  0  0  0  0  0  0  0
   -4.0992   -4.9181    0.0000 O   0  0  0  0  0  0  0  0  0  0  0  0
   -3.2742   -4.9181    0.0000 C   0  0  0  0  0  0  0  0  0  0  0  0
   -2.8617   -4.2036    0.0000 O   0  0  0  0  0  0  0  0  0  0  0  0
   -2.8617   -5.6326    0.0000 N   0  0  0  0  0  0  0  0  0  0  0  0
   -2.0367   -5.6326    0.0000 C   0  0  0  0  0  0  0  0  0  0  0  0
   -1.6242   -4.9181    0.0000 C   0  0  0  0  0  0  0  0  0  0  0  0
   -2.0367   -4.2036    0.0000 O   0  0  0  0  0  0  0  0  0  0  0  0
   -0.7992   -4.9181    0.0000 O   0  0  0  0  0  0  0  0  0  0  0  0
   -3.2742   -6.3470    0.0000 C   0  0  0  0  0  0  0  0  0  0  0  0
   -2.8617   -7.0615    0.0000 C   0  0  0  0  0  0  0  0  0  0  0  0
   -2.0367   -7.0615    0.0000 C   0  0  0  0  0  0  0  0  0  0  0  0
   -1.6242   -7.7760    0.0000 C   0  0  0  0  0  0  0  0  0  0  0  0
   -0.7992   -7.7760    0.0000 O   0  0  0  0  0  0  0  0  0  0  0  0
   -0.3867   -7.0615    0.0000 C   0  0  0  0  0  0  0  0  0  0  0  0
    0.4383   -7.0615    0.0000 C   0  0  0  0  0  0  0  0  0  0  0  0
    0.9233   -6.3941    0.0000 N   0  0  0  0  0  0  0  0  0  0  0  0
    1.7079   -6.6490    0.0000 C   0  0  0  0  0  0  0  0  0  0  0  0
    2.3753   -6.1641    0.0000 C   0  0  0  0  0  0  0  0  0  0  0  0
    2.2891   -5.3436    0.0000 C   0  0  0  0  0  0  0  0  0  0  0  0
    2.9565   -4.8587    0.0000 C   0  0  0  0  0  0  0  0  0  0  0  0
    3.7102   -5.1942    0.0000 C   0  0  0  0  0  0  0  0  0  0  0  0
    4.3776   -4.7093    0.0000 Cl  0  0  0  0  0  0  0  0  0  0  0  0
    3.7964   -6.0147    0.0000 C   0  0  0  0  0  0  0  0  0  0  0  0
    3.1290   -6.4996    0.0000 C   0  0  0  0  0  0  0  0  0  0  0  0
    1.7079   -7.4740    0.0000 O   0  0  0  0  0  0  0  0  0  0  0  0
    0.9233   -7.7289    0.0000 C   0  0  0  0  0  0  0  0  0  0  0  0
    0.6683   -8.5136    0.0000 C   0  0  0  0  0  0  0  0  0  0  0  0
   -2.0367   -8.4904    0.0000 C   0  0  0  0  0  0  0  0  0  0  0  0
   -2.8617   -8.4904    0.0000 C   0  0  0  0  0  0  0  0  0  0  0  0
   -3.2742   -7.7760    0.0000 C   0  0  0  0  0  0  0  0  0  0  0  0
   -4.0992   -7.7760    0.0000 F   0  0  0  0  0  0  0  0  0  0  0  0
  1  2  1  0  0  0  0
  2  3  1  0  0  0  0
  3  4  2  0  0  0  0
  3  5  1  0  0  0  0
  5  6  1  0  0  0  0
  6  7  1  0  0  0  0
  7  8  2  0  0  0  0
  7  9  1  0  0  0  0
  5 10  1  0  0  0  0
 10 11  1  0  0  0  0
 11 12  4  0  0  0  0
 12 13  4  0  0  0  0
 13 14  1  0  0  0  0
 14 15  1  0  0  0  0
 15 16  1  0  0  0  0
 16 17  4  0  0  0  0
 17 18  4  0  0  0  0
 18 19  1  0  0  0  0
 19 20  4  0  0  0  0
 20 21  4  0  0  0  0
 21 22  4  0  0  0  0
 22 23  1  0  0  0  0
 22 24  4  0  0  0  0
 24 25  4  0  0  0  0
 19 25  4  0  0  0  0
 18 26  4  0  0  0  0
 26 27  4  0  0  0  0
 16 27  4  0  0  0  0
 27 28  1  0  0  0  0
 13 29  4  0  0  0  0
 29 30  4  0  0  0  0
 30 31  4  0  0  0  0
 11 31  4  0  0  0  0
 31 32  1  0  0  0  0
M  END
>  <CdId>
399

>  <Mol Weight>
462.86

>  <Formula>
C22H20ClFN2O6

>  <Molecule ChEMBL ID>
CHEMBL3828718

>  <Molecule Max Phase>
None

>  <Molecular Weight>
462.86

>  <#RO5 Violations>
0

>  <AlogP>
4.67

>  <Compound Key>
3; BMS-711939

>  <Standard Type>
IC50

>  <Standard Relation>
'>'

>  <Standard Value>
40000.0

>  <Standard Units>
nM

$$$$

  Mrv2114 03112311372D          

 22 21  0  0  0  0            999 V2000
    0.0000    0.0000    0.0000 Cl  0  0  0  0  0  0  0  0  0  0  0  0
    2.0036    0.0000    0.0000 Cl  0  0  0  0  0  0  0  0  0  0  0  0
    0.0000   -3.8945    0.0000 Cl  0  0  0  0  0  0  0  0  0  0  0  0
    5.8097   -1.6500    0.0000 N   0  0  0  0  0  0  0  0  0  0  0  0
    5.0952   -2.0625    0.0000 C   0  0  0  0  0  0  0  0  0  0  0  0
    5.0952   -2.8875    0.0000 C   0  0  0  0  0  0  0  0  0  0  0  0
    5.7627   -3.3724    0.0000 C   0  0  0  0  0  0  0  0  0  0  0  0
    5.5077   -4.1570    0.0000 C   0  0  0  0  0  0  0  0  0  0  0  0
    4.6827   -4.1570    0.0000 C   0  0  0  0  0  0  0  0  0  0  0  0
    4.1978   -4.8245    0.0000 C   0  0  0  0  0  0  0  0  0  0  0  0
    4.5333   -5.5782    0.0000 C   0  0  0  0  0  0  0  0  0  0  0  0
    4.0484   -6.2456    0.0000 N   0  0  0  0  0  0  0  0  0  0  0  0
    3.2279   -6.1594    0.0000 C   0  0  0  0  0  0  0  0  0  0  0  0
    2.8924   -5.4057    0.0000 C   0  0  0  0  0  0  0  0  0  0  0  0
    3.3773   -4.7382    0.0000 C   0  0  0  0  0  0  0  0  0  0  0  0
    3.0418   -3.9846    0.0000 C   0  0  0  0  0  0  0  0  0  0  0  0
    2.2213   -3.8983    0.0000 C   0  0  0  0  0  0  0  0  0  0  0  0
    1.8857   -3.1447    0.0000 C   0  0  0  0  0  0  0  0  0  0  0  0
    2.3706   -2.4772    0.0000 N   0  0  0  0  0  0  0  0  0  0  0  0
    3.1911   -2.5635    0.0000 C   0  0  0  0  0  0  0  0  0  0  0  0
    3.5267   -3.3171    0.0000 C   0  0  0  0  0  0  0  0  0  0  0  0
    4.4278   -3.3724    0.0000 S   0  0  0  0  0  0  0  0  0  0  0  0
  4  5  1  0  0  0  0
  5  6  1  0  0  0  0
  6  7  4  0  0  0  0
  7  8  4  0  0  0  0
  8  9  4  0  0  0  0
  9 10  1  0  0  0  0
 10 11  4  0  0  0  0
 11 12  4  0  0  0  0
 12 13  4  0  0  0  0
 13 14  4  0  0  0  0
 14 15  4  0  0  0  0
 10 15  4  0  0  0  0
 15 16  1  0  0  0  0
 16 17  4  0  0  0  0
 17 18  4  0  0  0  0
 18 19  4  0  0  0  0
 19 20  4  0  0  0  0
 20 21  4  0  0  0  0
 16 21  4  0  0  0  0
  9 22  4  0  0  0  0
  6 22  4  0  0  0  0
M  END
>  <CdId>
400

>  <Mol Weight>
376.72

>  <Formula>
C15H16Cl3N3S

>  <Molecule ChEMBL ID>
CHEMBL4172017

>  <Molecule Max Phase>
None

>  <Molecular Weight>
376.74

>  <#RO5 Violations>
0

>  <AlogP>
3.33

>  <Compound Key>
6o

>  <Standard Type>
IC50

>  <Standard Relation>
'>'

>  <Standard Value>
25000.0

>  <Standard Units>
nM

$$$$

  Mrv2114 03112311372D          

 35 38  0  0  0  0            999 V2000
    2.8579    0.0000    0.0000 C   0  0  0  0  0  0  0  0  0  0  0  0
    2.1434   -0.4125    0.0000 C   0  0  0  0  0  0  0  0  0  0  0  0
    2.1434   -1.2375    0.0000 C   0  0  0  0  0  0  0  0  0  0  0  0
    1.4289   -0.0000    0.0000 O   0  0  0  0  0  0  0  0  0  0  0  0
    0.7145   -0.4125    0.0000 C   0  0  0  0  0  0  0  0  0  0  0  0
    0.0000   -0.0000    0.0000 C   0  0  0  0  0  0  0  0  0  0  0  0
   -0.7145   -0.4125    0.0000 C   0  0  0  0  0  0  0  0  0  0  0  0
   -1.4289   -0.0000    0.0000 C   0  0  0  0  0  0  0  0  0  0  0  0
   -1.4289    0.8250    0.0000 C   0  0  0  0  0  0  0  0  0  0  0  0
   -0.7145    1.2375    0.0000 C   0  0  0  0  0  0  0  0  0  0  0  0
   -0.7145    2.0625    0.0000 C   0  0  0  0  0  0  0  0  0  0  0  0
   -0.7145    2.8875    0.0000 F   0  0  0  0  0  0  0  0  0  0  0  0
   -1.5395    2.0625    0.0000 F   0  0  0  0  0  0  0  0  0  0  0  0
    0.1105    2.0625    0.0000 F   0  0  0  0  0  0  0  0  0  0  0  0
    0.0000    0.8250    0.0000 C   0  0  0  0  0  0  0  0  0  0  0  0
    0.7145   -1.2375    0.0000 C   0  0  0  0  0  0  0  0  0  0  0  0
    1.3819   -1.7224    0.0000 N   0  0  0  0  0  0  0  0  0  0  0  0
    1.1270   -2.5070    0.0000 C   0  0  0  0  0  0  0  0  0  0  0  0
    1.6119   -3.1745    0.0000 N   0  0  0  0  0  0  0  0  0  0  0  0
    2.4324   -3.0882    0.0000 C   0  0  0  0  0  0  0  0  0  0  0  0
    2.9173   -3.7557    0.0000 C   0  0  0  0  0  0  0  0  0  0  0  0
    2.5817   -4.5094    0.0000 C   0  0  0  0  0  0  0  0  0  0  0  0
    3.0667   -5.1768    0.0000 N   0  0  0  0  0  0  0  0  0  0  0  0
    3.8871   -5.0906    0.0000 C   0  0  0  0  0  0  0  0  0  0  0  0
    4.2227   -4.3369    0.0000 O   0  0  0  0  0  0  0  0  0  0  0  0
    4.3721   -5.7580    0.0000 C   0  0  0  0  0  0  0  0  0  0  0  0
    5.1971   -5.7580    0.0000 C   0  0  0  0  0  0  0  0  0  0  0  0
    5.4520   -6.5426    0.0000 S   0  0  0  0  0  0  0  0  0  0  0  0
    4.7846   -7.0275    0.0000 C   0  0  0  0  0  0  0  0  0  0  0  0
    4.1171   -6.5426    0.0000 N   0  0  0  0  0  0  0  0  0  0  0  0
    1.7613   -4.5956    0.0000 C   0  0  0  0  0  0  0  0  0  0  0  0
    1.2763   -3.9282    0.0000 C   0  0  0  0  0  0  0  0  0  0  0  0
    0.4559   -4.0144    0.0000 O   0  0  0  0  0  0  0  0  0  0  0  0
    0.3020   -2.5070    0.0000 C   0  0  0  0  0  0  0  0  0  0  0  0
    0.0470   -1.7224    0.0000 N   0  0  0  0  0  0  0  0  0  0  0  0
  1  2  1  0  0  0  0
  2  3  1  0  0  0  0
  2  4  1  0  0  0  0
  4  5  1  0  0  0  0
  5  6  1  0  0  0  0
  6  7  4  0  0  0  0
  7  8  4  0  0  0  0
  8  9  4  0  0  0  0
  9 10  4  0  0  0  0
 10 11  1  0  0  0  0
 11 12  1  0  0  0  0
 11 13  1  0  0  0  0
 11 14  1  0  0  0  0
 10 15  4  0  0  0  0
  6 15  4  0  0  0  0
  5 16  1  0  0  0  0
 16 17  4  0  0  0  0
 17 18  4  0  0  0  0
 18 19  1  0  0  0  0
 19 20  4  0  0  0  0
 20 21  4  0  0  0  0
 21 22  4  0  0  0  0
 22 23  1  0  0  0  0
 23 24  1  0  0  0  0
 24 25  2  0  0  0  0
 24 26  1  0  0  0  0
 26 27  4  0  0  0  0
 27 28  4  0  0  0  0
 28 29  4  0  0  0  0
 29 30  4  0  0  0  0
 26 30  4  0  0  0  0
 22 31  4  0  0  0  0
 31 32  4  0  0  0  0
 19 32  4  0  0  0  0
 32 33  2  0  0  0  0
 18 34  4  0  0  0  0
 34 35  4  0  0  0  0
 16 35  4  0  0  0  0
M  STY  1   1 DAT
M  SAL   1  1  35
M  SDT   1 MRV_IMPLICIT_H                                        
M  SDD   1     0.0000    0.0000    DR    ALL  0       0  
M  SED   1 IMPL_H1
M  END
>  <CdId>
401

>  <Mol Weight>
503.5

>  <Formula>
C23H20F3N5O3S

>  <Molecule ChEMBL ID>
CHEMBL3810042

>  <Molecule Max Phase>
None

>  <Molecular Weight>
503.51

>  <#RO5 Violations>
1

>  <AlogP>
4.8

>  <Compound Key>
28

>  <Standard Type>
IC50

>  <Standard Relation>
'='

>  <Standard Value>
180.0

>  <Standard Units>
nM

$$$$

  Mrv2114 03112311372D          

 38 40  0  0  1  0            999 V2000
    0.6323   10.4382    0.0000 C   0  0  0  0  0  0  0  0  0  0  0  0
    0.3773    9.6536    0.0000 C   0  0  0  0  0  0  0  0  0  0  0  0
   -0.4296    9.4821    0.0000 C   0  0  2  0  0  0  0  0  0  0  0  0
   -0.6846    8.6974    0.0000 N   0  0  0  0  0  0  0  0  0  0  0  0
   -0.1325    8.0843    0.0000 S   0  0  0  0  0  0  0  0  0  0  0  0
    0.4195    7.4712    0.0000 O   0  0  0  0  0  0  0  0  0  0  0  0
    0.4806    8.6364    0.0000 O   0  0  0  0  0  0  0  0  0  0  0  0
   -0.7456    7.5323    0.0000 C   0  0  0  0  0  0  0  0  0  0  0  0
   -0.5741    6.7253    0.0000 C   0  0  0  0  0  0  0  0  0  0  0  0
   -1.1872    6.1733    0.0000 C   0  0  0  0  0  0  0  0  0  0  0  0
   -1.9718    6.4282    0.0000 C   0  0  0  0  0  0  0  0  0  0  0  0
   -2.5849    5.8762    0.0000 C   0  0  0  0  0  0  0  0  0  0  0  0
   -3.3919    6.0477    0.0000 S   0  0  0  0  0  0  0  0  0  0  0  0
   -3.8044    5.3333    0.0000 C   0  0  0  0  0  0  0  0  0  0  0  0
   -4.6249    5.2470    0.0000 C   0  0  0  0  0  0  0  0  0  0  0  0
   -5.1098    5.9145    0.0000 C   0  0  0  0  0  0  0  0  0  0  0  0
   -4.4424    6.3994    0.0000 C   0  0  0  0  0  0  0  0  0  0  0  0
   -5.7772    5.4295    0.0000 C   0  0  0  0  0  0  0  0  0  0  0  0
   -5.5947    6.5819    0.0000 C   0  0  0  0  0  0  0  0  0  0  0  0
   -6.4152    6.4957    0.0000 O   0  0  0  0  0  0  0  0  0  0  0  0
   -5.2592    7.3356    0.0000 O   0  0  0  0  0  0  0  0  0  0  0  0
   -3.2524    4.7202    0.0000 N   0  0  0  0  0  0  0  0  0  0  0  0
   -2.4987    5.0557    0.0000 C   0  0  0  0  0  0  0  0  0  0  0  0
   -1.7842    4.6432    0.0000 C   0  0  0  0  0  0  0  0  0  0  0  0
   -1.7842    3.8182    0.0000 C   0  0  0  0  0  0  0  0  0  0  0  0
   -1.2008    3.2349    0.0000 C   0  0  0  0  0  0  0  0  0  0  0  0
   -1.7842    2.6515    0.0000 C   0  0  0  0  0  0  0  0  0  0  0  0
   -2.3676    3.2349    0.0000 C   0  0  0  0  0  0  0  0  0  0  0  0
   -2.1433    7.2352    0.0000 C   0  0  0  0  0  0  0  0  0  0  0  0
   -2.9280    7.4901    0.0000 C   0  0  0  0  0  0  0  0  0  0  0  0
   -3.0995    8.2971    0.0000 F   0  0  0  0  0  0  0  0  0  0  0  0
   -3.5411    6.9381    0.0000 F   0  0  0  0  0  0  0  0  0  0  0  0
   -1.5303    7.7872    0.0000 C   0  0  0  0  0  0  0  0  0  0  0  0
   -1.7018    8.5942    0.0000 F   0  0  0  0  0  0  0  0  0  0  0  0
   -0.9817   10.0951    0.0000 C   0  0  0  0  0  0  0  0  0  0  0  0
   -1.5337   10.7082    0.0000 F   0  0  0  0  0  0  0  0  0  0  0  0
   -1.5948    9.5431    0.0000 F   0  0  0  0  0  0  0  0  0  0  0  0
   -0.3686   10.6472    0.0000 F   0  0  0  0  0  0  0  0  0  0  0  0
  1  2  1  0  0  0  0
  3  2  1  0  0  0  0
  3  4  1  6  0  0  0
  4  5  1  0  0  0  0
  5  6  2  0  0  0  0
  5  7  2  0  0  0  0
  5  8  1  0  0  0  0
  8  9  4  0  0  0  0
  9 10  4  0  0  0  0
 10 11  4  0  0  0  0
 11 12  1  0  0  0  0
 12 13  4  0  0  0  0
 13 14  4  0  0  0  0
 14 15  1  0  0  0  0
 15 16  1  0  0  0  0
 16 17  1  0  0  0  0
 16 18  1  0  0  0  0
 16 19  1  0  0  0  0
 19 20  2  0  0  0  0
 19 21  1  0  0  0  0
 14 22  4  0  0  0  0
 22 23  4  0  0  0  0
 12 23  4  0  0  0  0
 23 24  1  0  0  0  0
 24 25  1  0  0  0  0
 25 26  1  0  0  0  0
 26 27  1  0  0  0  0
 27 28  1  0  0  0  0
 25 28  1  0  0  0  0
 11 29  4  0  0  0  0
 29 30  1  0  0  0  0
 30 31  1  0  0  0  0
 30 32  1  0  0  0  0
 29 33  4  0  0  0  0
  8 33  4  0  0  0  0
 33 34  1  0  0  0  0
  3 35  1  0  0  0  0
 35 36  1  0  0  0  0
 35 37  1  0  0  0  0
 35 38  1  0  0  0  0
M  END
>  <CdId>
402

>  <Mol Weight>
586.61

>  <Formula>
C24H28F6N2O4S2

>  <Molecule ChEMBL ID>
CHEMBL4641138

>  <Molecule Max Phase>
None

>  <Molecular Weight>
586.62

>  <#RO5 Violations>
2

>  <AlogP>
6.5

>  <Compound Key>
03.maj

>  <Standard Type>
IC50

>  <Standard Relation>
'='

>  <Standard Value>
1800.0

>  <Standard Units>
nM

$$$$

  Mrv2114 03112311372D          

 27 29  0  0  0  0            999 V2000
    1.9252    0.3395    0.0000 O   0  0  0  0  0  0  0  0  0  0  0  0
    2.2074   -0.4358    0.0000 C   0  0  0  0  0  0  0  0  0  0  0  0
    3.0198   -0.5790    0.0000 O   0  0  0  0  0  0  0  0  0  0  0  0
    1.6771   -1.0678    0.0000 C   0  0  0  0  0  0  0  0  0  0  0  0
    1.9592   -1.8430    0.0000 C   0  0  0  0  0  0  0  0  0  0  0  0
    1.4289   -2.4750    0.0000 C   0  0  0  0  0  0  0  0  0  0  0  0
    0.8986   -1.8430    0.0000 C   0  0  0  0  0  0  0  0  0  0  0  0
    0.0862   -1.9863    0.0000 C   0  0  0  0  0  0  0  0  0  0  0  0
   -0.4441   -1.3543    0.0000 C   0  0  0  0  0  0  0  0  0  0  0  0
   -0.1620   -0.5790    0.0000 C   0  0  0  0  0  0  0  0  0  0  0  0
    0.6505   -0.4358    0.0000 C   0  0  0  0  0  0  0  0  0  0  0  0
    1.1808   -1.0678    0.0000 C   0  0  0  0  0  0  0  0  0  0  0  0
    2.1434   -2.8875    0.0000 C   0  0  0  0  0  0  0  0  0  0  0  0
    2.1434   -3.7125    0.0000 C   0  0  0  0  0  0  0  0  0  0  0  0
    1.4289   -4.1250    0.0000 C   0  0  0  0  0  0  0  0  0  0  0  0
    0.7145   -3.7125    0.0000 N   0  0  0  0  0  0  0  0  0  0  0  0
    0.0000   -4.1250    0.0000 C   0  0  0  0  0  0  0  0  0  0  0  0
   -0.7145   -3.7125    0.0000 O   0  0  0  0  0  0  0  0  0  0  0  0
    0.0000   -4.9500    0.0000 N   0  0  0  0  0  0  0  0  0  0  0  0
   -0.7145   -5.3625    0.0000 C   0  0  0  0  0  0  0  0  0  0  0  0
   -0.7145   -6.1875    0.0000 C   0  0  0  0  0  0  0  0  0  0  0  0
   -1.4289   -6.6000    0.0000 C   0  0  0  0  0  0  0  0  0  0  0  0
   -2.1434   -6.1875    0.0000 C   0  0  0  0  0  0  0  0  0  0  0  0
   -2.8579   -6.6000    0.0000 Cl  0  0  0  0  0  0  0  0  0  0  0  0
   -2.1434   -5.3625    0.0000 C   0  0  0  0  0  0  0  0  0  0  0  0
   -1.4289   -4.9500    0.0000 C   0  0  0  0  0  0  0  0  0  0  0  0
    0.7145   -2.8875    0.0000 C   0  0  0  0  0  0  0  0  0  0  0  0
  1  2  2  0  0  0  0
  2  3  1  0  0  0  0
  2  4  1  0  0  0  0
  4  5  1  0  0  0  0
  5  6  1  0  0  0  0
  6  7  1  0  0  0  0
  7  8  4  0  0  0  0
  8  9  4  0  0  0  0
  9 10  4  0  0  0  0
 10 11  4  0  0  0  0
 11 12  4  0  0  0  0
  7 12  4  0  0  0  0
  6 13  1  0  0  0  0
 13 14  1  0  0  0  0
 14 15  1  0  0  0  0
 15 16  1  0  0  0  0
 16 17  1  0  0  0  0
 17 18  2  0  0  0  0
 17 19  1  0  0  0  0
 19 20  1  0  0  0  0
 20 21  4  0  0  0  0
 21 22  4  0  0  0  0
 22 23  4  0  0  0  0
 23 24  1  0  0  0  0
 23 25  4  0  0  0  0
 25 26  4  0  0  0  0
 20 26  4  0  0  0  0
 16 27  1  0  0  0  0
  6 27  1  0  0  0  0
M  END
>  <CdId>
403

>  <Mol Weight>
386.88

>  <Formula>
C21H23ClN2O3

>  <Molecule ChEMBL ID>
CHEMBL1079256

>  <Molecule Max Phase>
None

>  <Molecular Weight>
386.88

>  <#RO5 Violations>
0

>  <AlogP>
4.77

>  <Compound Key>
entA-2b

>  <Standard Type>
IC50

>  <Standard Relation>
'='

>  <Standard Value>
65000.0

>  <Standard Units>
nM

$$$$

  Mrv2114 03112311372D          

 25 27  0  0  0  0            999 V2000
    0.0000   -2.4750    0.0000 O   0  0  0  0  0  0  0  0  0  0  0  0
    0.0000   -1.6500    0.0000 C   0  0  0  0  0  0  0  0  0  0  0  0
   -0.7145   -1.2375    0.0000 C   0  0  0  0  0  0  0  0  0  0  0  0
   -1.4289   -1.6500    0.0000 C   0  0  0  0  0  0  0  0  0  0  0  0
   -1.4289   -2.4750    0.0000 C   0  0  0  0  0  0  0  0  0  0  0  0
   -0.7615   -2.9599    0.0000 C   0  0  0  0  0  0  0  0  0  0  0  0
   -1.0164   -3.7445    0.0000 C   0  0  0  0  0  0  0  0  0  0  0  0
   -1.8414   -3.7445    0.0000 N   0  0  0  0  0  0  0  0  0  0  0  0
   -2.3264   -4.4120    0.0000 C   0  0  0  0  0  0  0  0  0  0  0  0
   -1.9908   -5.1657    0.0000 C   0  0  0  0  0  0  0  0  0  0  0  0
   -2.4757   -5.8331    0.0000 C   0  0  0  0  0  0  0  0  0  0  0  0
   -3.2962   -5.7469    0.0000 C   0  0  0  0  0  0  0  0  0  0  0  0
   -3.6318   -4.9932    0.0000 C   0  0  0  0  0  0  0  0  0  0  0  0
   -3.1468   -4.3257    0.0000 C   0  0  0  0  0  0  0  0  0  0  0  0
   -2.0964   -2.9599    0.0000 N   0  0  0  0  0  0  0  0  0  0  0  0
    0.7145   -1.2375    0.0000 N   0  0  0  0  0  0  0  0  0  0  0  0
    0.7145   -0.4125    0.0000 C   0  0  0  0  0  0  0  0  0  0  0  0
    0.0000    0.0000    0.0000 C   0  0  0  0  0  0  0  0  0  0  0  0
    0.0000    0.8250    0.0000 C   0  0  0  0  0  0  0  0  0  0  0  0
    0.7145    1.2375    0.0000 C   0  0  0  0  0  0  0  0  0  0  0  0
    1.4289    0.8250    0.0000 C   0  0  0  0  0  0  0  0  0  0  0  0
    1.4289    0.0000    0.0000 C   0  0  0  0  0  0  0  0  0  0  0  0
    2.1434   -0.4125    0.0000 C   0  0  0  0  0  0  0  0  0  0  0  0
    2.1434   -1.2375    0.0000 O   0  0  0  0  0  0  0  0  0  0  0  0
    2.8579    0.0000    0.0000 O   0  0  0  0  0  0  0  0  0  0  0  0
  1  2  2  0  0  0  0
  2  3  1  0  0  0  0
  3  4  1  0  0  0  0
  4  5  1  0  0  0  0
  5  6  4  0  0  0  0
  6  7  4  0  0  0  0
  7  8  4  0  0  0  0
  8  9  1  0  0  0  0
  9 10  4  0  0  0  0
 10 11  4  0  0  0  0
 11 12  4  0  0  0  0
 12 13  4  0  0  0  0
 13 14  4  0  0  0  0
  9 14  4  0  0  0  0
  8 15  4  0  0  0  0
  5 15  4  0  0  0  0
  2 16  1  0  0  0  0
 16 17  1  0  0  0  0
 17 18  4  0  0  0  0
 18 19  4  0  0  0  0
 19 20  4  0  0  0  0
 20 21  4  0  0  0  0
 21 22  4  0  0  0  0
 17 22  4  0  0  0  0
 22 23  1  0  0  0  0
 23 24  2  0  0  0  0
 23 25  1  0  0  0  0
M  END
>  <CdId>
404

>  <Mol Weight>
335.363

>  <Formula>
C19H17N3O3

>  <Molecule ChEMBL ID>
CHEMBL1086567

>  <Molecule Max Phase>
None

>  <Molecular Weight>
335.36

>  <#RO5 Violations>
0

>  <AlogP>
3.14

>  <Compound Key>
2

>  <Standard Type>
IC50

>  <Standard Relation>
'='

>  <Standard Value>
2700.0

>  <Standard Units>
nM

$$$$

  Mrv2114 03112311372D          

 23 27  0  0  1  0            999 V2000
    2.3740   -3.6960    0.0000 N   0  0  0  0  0  0  0  0  0  0  0  0
    1.5894   -3.9509    0.0000 C   0  0  0  0  0  0  0  0  0  0  0  0
    0.8048   -4.2059    0.0000 C   0  0  2  0  0  0  0  0  0  0  0  0
    0.5499   -4.9906    0.0000 C   0  0  0  0  0  0  0  0  0  0  0  0
   -0.2751   -4.9906    0.0000 C   0  0  2  0  0  0  0  0  0  0  0  0
   -1.0821   -4.8191    0.0000 C   0  0  0  0  0  0  0  0  0  0  0  0
   -0.5301   -4.2060    0.0000 C   0  0  2  0  0  0  0  0  0  0  0  0
    0.1373   -3.7210    0.0000 N   0  0  0  0  0  0  0  0  0  0  0  0
    0.1373   -2.8960    0.0000 C   0  0  0  0  0  0  0  0  0  0  0  0
   -0.5772   -2.4836    0.0000 O   0  0  0  0  0  0  0  0  0  0  0  0
    0.8517   -2.4835    0.0000 C   0  0  1  0  0  0  0  0  0  0  0  0
    1.5662   -2.8960    0.0000 N   0  0  0  0  0  0  0  0  0  0  0  0
    0.8517   -1.6585    0.0000 C   0  0  0  0  0  0  0  0  0  0  0  0
    0.1163   -2.0322    0.0000 C   0  0  0  0  0  0  0  0  0  0  0  0
    0.5657   -1.2419    0.0000 C   0  0  0  0  0  0  0  0  0  0  0  0
    0.5657   -0.4945    0.0000 C   0  0  0  0  0  0  0  0  0  0  0  0
    1.3012   -0.1208    0.0000 C   0  0  0  0  0  0  0  0  0  0  0  0
    2.0368   -0.4945    0.0000 C   0  0  0  0  0  0  0  0  0  0  0  0
    2.0368   -1.2419    0.0000 C   0  0  0  0  0  0  0  0  0  0  0  0
    2.8344   -1.4529    0.0000 O   0  0  0  0  0  0  0  0  0  0  0  0
    1.3012   -1.6156    0.0000 C   0  0  0  0  0  0  0  0  0  0  0  0
    1.5873   -2.0322    0.0000 C   0  0  0  0  0  0  0  0  0  0  0  0
    0.8517   -0.9111    0.0000 C   0  0  0  0  0  0  0  0  0  0  0  0
  1  2  3  0  0  0  0
  3  2  1  6  0  0  0
  3  4  1  0  0  0  0
  5  4  1  0  0  0  0
  5  6  1  6  0  0  0
  7  6  1  6  0  0  0
  5  7  1  0  0  0  0
  7  8  1  0  0  0  0
  3  8  1  0  0  0  0
  8  9  1  0  0  0  0
  9 10  2  0  0  0  0
 11  9  1  0  0  0  0
 11 12  1  6  0  0  0
 11 13  1  0  0  0  0
 13 14  1  0  0  0  0
 14 15  1  0  0  0  0
 17 23  1  0  0  0  0
 16 17  1  0  0  0  0
 17 18  1  0  0  0  0
 13 22  1  0  0  0  0
 19 20  1  0  0  0  0
 19 21  1  0  0  0  0
 15 21  1  0  0  0  0
 19 22  1  0  0  0  0
 18 19  1  0  0  0  0
 15 16  1  0  0  0  0
 13 23  1  0  0  0  0
M  END
>  <CdId>
405

>  <Mol Weight>
315.417

>  <Formula>
C18H25N3O2

>  <Molecule ChEMBL ID>
CHEMBL385517

>  <Molecule Name>
SAXAGLIPTIN

>  <Molecule Max Phase>
4

>  <Molecular Weight>
315.42

>  <#RO5 Violations>
0

>  <AlogP>
1.16

>  <Compound Key>
Saxagliptin, Onglyza

>  <Standard Type>
IC50

>  <Standard Relation>
'>'

>  <Standard Value>
50000.0

>  <Standard Units>
nM

$$$$

  Mrv2114 03112311372D          

 22 23  0  0  1  0            999 V2000
    2.1434   -2.8875    0.0000 C   0  0  0  0  0  0  0  0  0  0  0  0
    2.8579   -2.4750    0.0000 C   0  0  0  0  0  0  0  0  0  0  0  0
    3.5724   -2.8875    0.0000 C   0  0  0  0  0  0  0  0  0  0  0  0
    4.2868   -2.4750    0.0000 C   0  0  0  0  0  0  0  0  0  0  0  0
    5.0013   -2.8875    0.0000 C   0  0  0  0  0  0  0  0  0  0  0  0
    5.7158   -2.4750    0.0000 C   0  0  1  0  0  0  0  0  0  0  0  0
    5.7158   -1.6500    0.0000 O   0  0  0  0  0  0  0  0  0  0  0  0
    6.4302   -1.2375    0.0000 C   0  0  0  0  0  0  0  0  0  0  0  0
    6.4302   -0.4125    0.0000 O   0  0  0  0  0  0  0  0  0  0  0  0
    7.1447   -1.6500    0.0000 C   0  0  0  0  0  0  0  0  0  0  0  0
    7.8592   -1.2375    0.0000 C   0  0  0  0  0  0  0  0  0  0  0  0
    8.5737   -1.6500    0.0000 C   0  0  0  0  0  0  0  0  0  0  0  0
    8.5737   -2.4750    0.0000 C   0  0  0  0  0  0  0  0  0  0  0  0
    9.2881   -2.8875    0.0000 O   0  0  0  0  0  0  0  0  0  0  0  0
   10.0026   -2.4750    0.0000 C   0  0  0  0  0  0  0  0  0  0  0  0
    7.8592   -2.8875    0.0000 C   0  0  0  0  0  0  0  0  0  0  0  0
    7.1447   -2.4750    0.0000 C   0  0  0  0  0  0  0  0  0  0  0  0
    6.4302   -2.8875    0.0000 C   0  0  1  0  0  0  0  0  0  0  0  0
    6.4302   -3.7125    0.0000 O   0  0  0  0  0  0  0  0  0  0  0  0
    7.1447   -4.1250    0.0000 C   0  0  0  0  0  0  0  0  0  0  0  0
    7.8592   -3.7125    0.0000 C   0  0  0  0  0  0  0  0  0  0  0  0
    7.1447   -4.9500    0.0000 O   0  0  0  0  0  0  0  0  0  0  0  0
  1  2  1  0  0  0  0
  2  3  1  0  0  0  0
  3  4  1  0  0  0  0
  4  5  1  0  0  0  0
  6  5  1  1  0  0  0
  6  7  1  0  0  0  0
  7  8  1  0  0  0  0
  8  9  2  0  0  0  0
  8 10  1  0  0  0  0
 10 11  4  0  0  0  0
 11 12  4  0  0  0  0
 12 13  4  0  0  0  0
 13 14  1  0  0  0  0
 14 15  1  0  0  0  0
 13 16  4  0  0  0  0
 16 17  4  0  0  0  0
 10 17  4  0  0  0  0
 18 17  1  0  0  0  0
  6 18  1  0  0  0  0
 18 19  1  1  0  0  0
 19 20  1  0  0  0  0
 20 21  1  0  0  0  0
 20 22  2  0  0  0  0
M  END
>  <CdId>
406

>  <Mol Weight>
306.358

>  <Formula>
C17H22O5

>  <Molecule ChEMBL ID>
CHEMBL529220

>  <Molecule Max Phase>
None

>  <Molecular Weight>
306.36

>  <#RO5 Violations>
0

>  <AlogP>
3.42

>  <Compound Key>
1

>  <Standard Type>
IC50

>  <Standard Relation>
'>'

>  <Standard Value>
65000.0

>  <Standard Units>
nM

$$$$

  Mrv2114 03112311372D          

 32 35  0  0  1  0            999 V2000
   -0.7145   -0.4125    0.0000 C   0  0  0  0  0  0  0  0  0  0  0  0
    0.0000    0.0000    0.0000 O   0  0  0  0  0  0  0  0  0  0  0  0
    0.7145   -0.4125    0.0000 C   0  0  0  0  0  0  0  0  0  0  0  0
    1.4289    0.0000    0.0000 C   0  0  0  0  0  0  0  0  0  0  0  0
    2.1434   -0.4125    0.0000 C   0  0  0  0  0  0  0  0  0  0  0  0
    2.8579    0.0000    0.0000 N   0  0  0  0  0  0  0  0  0  0  0  0
    3.5724   -0.4125    0.0000 C   0  0  0  0  0  0  0  0  0  0  0  0
    3.5724   -1.2375    0.0000 N   0  0  0  0  0  0  0  0  0  0  0  0
    2.8579   -1.6500    0.0000 C   0  0  0  0  0  0  0  0  0  0  0  0
    2.8579   -2.4750    0.0000 N   0  0  0  0  0  0  0  0  0  0  0  0
    3.5724   -2.8875    0.0000 C   0  0  0  0  0  0  0  0  0  0  0  0
    4.2868   -2.4750    0.0000 C   0  0  0  0  0  0  0  0  0  0  0  0
    5.0013   -2.8875    0.0000 C   0  0  0  0  0  0  0  0  0  0  0  0
    5.0013   -3.7125    0.0000 C   0  0  0  0  0  0  0  0  0  0  0  0
    4.2868   -4.1250    0.0000 C   0  0  0  0  0  0  0  0  0  0  0  0
    4.2868   -4.9500    0.0000 Cl  0  0  0  0  0  0  0  0  0  0  0  0
    3.5724   -3.7125    0.0000 C   0  0  0  0  0  0  0  0  0  0  0  0
    2.8579   -4.1250    0.0000 F   0  0  0  0  0  0  0  0  0  0  0  0
    2.1434   -1.2375    0.0000 C   0  0  0  0  0  0  0  0  0  0  0  0
    1.4289   -1.6500    0.0000 C   0  0  0  0  0  0  0  0  0  0  0  0
    0.7145   -1.2375    0.0000 C   0  0  0  0  0  0  0  0  0  0  0  0
    0.0000   -1.6500    0.0000 O   0  0  0  0  0  0  0  0  0  0  0  0
    0.0000   -2.4750    0.0000 C   0  0  0  0  0  0  0  0  0  0  0  0
    0.7145   -2.8875    0.0000 O   0  0  0  0  0  0  0  0  0  0  0  0
   -0.7145   -2.8875    0.0000 N   0  0  0  0  0  0  0  0  0  0  0  0
   -0.7145   -3.7125    0.0000 C   0  0  0  0  0  0  0  0  0  0  0  0
   -1.4289   -4.1250    0.0000 C   0  0  0  0  0  0  0  0  0  0  0  0
   -2.1434   -3.7125    0.0000 N   0  0  0  0  0  0  0  0  0  0  0  0
   -2.8579   -4.1250    0.0000 C   0  0  0  0  0  0  0  0  0  0  0  0
   -2.1434   -2.8875    0.0000 C   0  0  0  0  0  0  0  0  0  0  0  0
   -1.4289   -2.4750    0.0000 C   0  0  1  0  0  0  0  0  0  0  0  0
   -1.4289   -1.6500    0.0000 C   0  0  0  0  0  0  0  0  0  0  0  0
  1  2  1  0  0  0  0
  2  3  1  0  0  0  0
  3  4  4  0  0  0  0
  4  5  4  0  0  0  0
  5  6  4  0  0  0  0
  6  7  4  0  0  0  0
  7  8  4  0  0  0  0
  8  9  4  0  0  0  0
  9 10  1  0  0  0  0
 10 11  1  0  0  0  0
 11 12  4  0  0  0  0
 12 13  4  0  0  0  0
 13 14  4  0  0  0  0
 14 15  4  0  0  0  0
 15 16  1  0  0  0  0
 15 17  4  0  0  0  0
 11 17  4  0  0  0  0
 17 18  1  0  0  0  0
  9 19  4  0  0  0  0
  5 19  4  0  0  0  0
 19 20  4  0  0  0  0
 20 21  4  0  0  0  0
  3 21  4  0  0  0  0
 21 22  1  0  0  0  0
 22 23  1  0  0  0  0
 23 24  2  0  0  0  0
 23 25  1  0  0  0  0
 25 26  1  0  0  0  0
 26 27  1  0  0  0  0
 27 28  1  0  0  0  0
 28 29  1  0  0  0  0
 28 30  1  0  0  0  0
 31 30  1  0  0  0  0
 31 25  1  0  0  0  0
 31 32  1  1  0  0  0
M  END
>  <CdId>
407

>  <Mol Weight>
459.91

>  <Formula>
C22H23ClFN5O3

>  <Molecule ChEMBL ID>
CHEMBL3623290

>  <Molecule Name>
AZD-3759

>  <Molecule Max Phase>
2

>  <Molecular Weight>
459.91

>  <#RO5 Violations>
0

>  <AlogP>
4.31

>  <Compound Key>
1m, AZD3759

>  <Standard Type>
IC50

>  <Standard Relation>
'>'

>  <Standard Value>
50.0

>  <Standard Units>
nM

$$$$

  Mrv2114 03112311372D          

 30 32  0  0  1  0            999 V2000
    0.0000   -4.9500    0.0000 C   0  0  0  0  0  0  0  0  0  0  0  0
    0.7145   -4.5375    0.0000 C   0  0  0  0  0  0  0  0  0  0  0  0
    0.7145   -3.7125    0.0000 C   0  0  0  0  0  0  0  0  0  0  0  0
    1.5395   -3.7125    0.0000 C   0  0  0  0  0  0  0  0  0  0  0  0
   -0.1105   -3.7125    0.0000 C   0  0  0  0  0  0  0  0  0  0  0  0
    0.7145   -2.8875    0.0000 C   0  0  0  0  0  0  0  0  0  0  0  0
    0.0000   -2.4750    0.0000 O   0  0  0  0  0  0  0  0  0  0  0  0
    1.4289   -2.4750    0.0000 O   0  0  0  0  0  0  0  0  0  0  0  0
    1.4289   -1.6500    0.0000 C   0  0  1  0  0  0  0  0  0  0  0  0
    0.7145   -1.2375    0.0000 C   0  0  0  0  0  0  0  0  0  0  0  0
    0.7145   -0.4125    0.0000 C   0  0  1  0  0  0  0  0  0  0  0  0
    0.0000    0.0000    0.0000 C   0  0  0  0  0  0  0  0  0  0  0  0
    1.4289    0.0000    0.0000 C   0  0  0  0  0  0  0  0  0  0  0  0
    2.1434   -0.4125    0.0000 C   0  0  0  0  0  0  0  0  0  0  0  0
    2.8579    0.0000    0.0000 C   0  0  0  0  0  0  0  0  0  0  0  0
    3.5724   -0.4125    0.0000 C   0  0  0  0  0  0  0  0  0  0  0  0
    3.5724   -1.2375    0.0000 C   0  0  2  0  0  0  0  0  0  0  0  0
    4.2868   -1.6500    0.0000 C   0  0  0  0  0  0  0  0  0  0  0  0
    2.8579   -1.6500    0.0000 C   0  0  2  0  0  0  0  0  0  0  0  0
    2.8579   -2.4750    0.0000 C   0  0  0  0  0  0  0  0  0  0  0  0
    3.5724   -2.8875    0.0000 C   0  0  0  0  0  0  0  0  0  0  0  0
    3.5724   -3.7125    0.0000 C   0  0  2  0  0  0  0  0  0  0  0  0
    2.8579   -4.1250    0.0000 C   0  0  0  0  0  0  0  0  0  0  0  0
    2.8579   -4.9500    0.0000 C   0  0  1  0  0  0  0  0  0  0  0  0
    2.1434   -5.3625    0.0000 O   0  0  0  0  0  0  0  0  0  0  0  0
    3.5724   -5.3625    0.0000 C   0  0  0  0  0  0  0  0  0  0  0  0
    4.2868   -4.9500    0.0000 C   0  0  0  0  0  0  0  0  0  0  0  0
    5.0013   -5.3625    0.0000 O   0  0  0  0  0  0  0  0  0  0  0  0
    4.2868   -4.1250    0.0000 O   0  0  0  0  0  0  0  0  0  0  0  0
    2.1434   -1.2375    0.0000 C   0  0  1  0  0  0  0  0  0  0  0  0
  1  2  1  0  0  0  0
  2  3  1  0  0  0  0
  3  4  1  0  0  0  0
  3  5  1  0  0  0  0
  3  6  1  0  0  0  0
  6  7  2  0  0  0  0
  6  8  1  0  0  0  0
  9  8  1  1  0  0  0
  9 10  1  0  0  0  0
 11 10  1  0  0  0  0
 11 12  1  1  0  0  0
 11 13  1  0  0  0  0
 13 14  2  0  0  0  0
 14 15  1  0  0  0  0
 15 16  2  0  0  0  0
 17 16  1  0  0  0  0
 17 18  1  6  0  0  0
 19 17  1  0  0  0  0
 19 20  1  6  0  0  0
 20 21  1  0  0  0  0
 22 21  1  1  0  0  0
 22 23  1  0  0  0  0
 24 23  1  0  0  0  0
 24 25  1  6  0  0  0
 24 26  1  0  0  0  0
 26 27  1  0  0  0  0
 27 28  2  0  0  0  0
 27 29  1  0  0  0  0
 22 29  1  0  0  0  0
 19 30  1  0  0  0  0
 30 14  1  1  0  0  0
 30  9  1  0  0  0  0
M  END
>  <CdId>
408

>  <Mol Weight>
418.574

>  <Formula>
C25H38O5

>  <Molecule ChEMBL ID>
CHEMBL1064

>  <Molecule Name>
SIMVASTATIN

>  <Molecule Max Phase>
4

>  <Molecular Weight>
418.57

>  <#RO5 Violations>
0

>  <AlogP>
4.59

>  <Compound Key>
Simvastatin

>  <Standard Type>
IC50

>  <Standard Relation>
'='

>  <Standard Value>
3700.0

>  <Standard Units>
nM

$$$$

  Mrv2114 03112311372D          

 20 21  0  0  0  0            999 V2000
   -0.7145   -2.0625    0.0000 C   0  0  0  0  0  0  0  0  0  0  0  0
   -0.7145   -1.2375    0.0000 C   0  0  0  0  0  0  0  0  0  0  0  0
   -1.4289   -0.8250    0.0000 C   0  0  0  0  0  0  0  0  0  0  0  0
   -1.4289    0.0000    0.0000 C   0  0  0  0  0  0  0  0  0  0  0  0
   -0.7145    0.4125    0.0000 C   0  0  0  0  0  0  0  0  0  0  0  0
    0.0000   -0.0000    0.0000 C   0  0  0  0  0  0  0  0  0  0  0  0
    0.0000   -0.8250    0.0000 C   0  0  0  0  0  0  0  0  0  0  0  0
    0.7145   -1.2375    0.0000 C   0  0  0  0  0  0  0  0  0  0  0  0
    1.4289   -0.8250    0.0000 O   0  0  0  0  0  0  0  0  0  0  0  0
    2.1434   -1.2375    0.0000 C   0  0  0  0  0  0  0  0  0  0  0  0
    2.8579   -0.8250    0.0000 C   0  0  0  0  0  0  0  0  0  0  0  0
    3.5724   -1.2375    0.0000 N   0  0  0  0  0  0  0  0  0  0  0  0
    4.2868   -0.8250    0.0000 C   0  0  0  0  0  0  0  0  0  0  0  0
    3.5724   -2.0625    0.0000 C   0  0  0  0  0  0  0  0  0  0  0  0
    0.7145   -2.0625    0.0000 C   0  0  0  0  0  0  0  0  0  0  0  0
    1.4289   -2.4750    0.0000 C   0  0  0  0  0  0  0  0  0  0  0  0
    1.4289   -3.3000    0.0000 C   0  0  0  0  0  0  0  0  0  0  0  0
    0.7145   -3.7125    0.0000 C   0  0  0  0  0  0  0  0  0  0  0  0
    0.0000   -3.3000    0.0000 C   0  0  0  0  0  0  0  0  0  0  0  0
    0.0000   -2.4750    0.0000 C   0  0  0  0  0  0  0  0  0  0  0  0
  1  2  1  0  0  0  0
  2  3  4  0  0  0  0
  3  4  4  0  0  0  0
  4  5  4  0  0  0  0
  5  6  4  0  0  0  0
  6  7  4  0  0  0  0
  2  7  4  0  0  0  0
  7  8  1  0  0  0  0
  8  9  1  0  0  0  0
  9 10  1  0  0  0  0
 10 11  1  0  0  0  0
 11 12  1  0  0  0  0
 12 13  1  0  0  0  0
 12 14  1  0  0  0  0
  8 15  1  0  0  0  0
 15 16  4  0  0  0  0
 16 17  4  0  0  0  0
 17 18  4  0  0  0  0
 18 19  4  0  0  0  0
 19 20  4  0  0  0  0
 15 20  4  0  0  0  0
M  END
>  <CdId>
409

>  <Mol Weight>
269.388

>  <Formula>
C18H23NO

>  <Molecule ChEMBL ID>
CHEMBL900

>  <Molecule Name>
ORPHENADRINE

>  <Molecule Max Phase>
4

>  <Molecular Weight>
269.39

>  <#RO5 Violations>
0

>  <AlogP>
3.66

>  <Compound Key>
Orphenadrine

>  <Standard Type>
IC50

>  <Standard Relation>
'>'

>  <Standard Value>
30000.0

>  <Standard Units>
nM

$$$$

  Mrv2114 03112311372D          

103115  0  0  1  0            999 V2000
    0.0320   -0.0623    0.0000 C   0  0  0  0  0  0  0  0  0  0  0  0
    0.6748   -0.5795    0.0000 O   0  0  0  0  0  0  0  0  0  0  0  0
    1.4440   -0.2814    0.0000 C   0  0  0  0  0  0  0  0  0  0  0  0
    1.5705    0.5339    0.0000 C   0  0  0  0  0  0  0  0  0  0  0  0
    2.0868   -0.7985    0.0000 C   0  0  0  0  0  0  0  0  0  0  0  0
    2.6748   -0.1974    0.0000 N   0  0  0  0  0  0  0  0  0  0  0  0
    3.3976    0.2316    0.0000 C   0  0  0  0  0  0  0  0  0  0  0  0
    3.0630    0.9857    0.0000 O   0  0  0  0  0  0  0  0  0  0  0  0
    4.2012    0.4799    0.0000 C   0  0  2  0  0  0  0  0  0  0  0  0
    4.0586    1.2925    0.0000 C   0  0  1  0  0  0  0  0  0  0  0  0
    3.2835    1.5753    0.0000 C   0  0  0  0  0  0  0  0  0  0  0  0
    4.6910    1.8223    0.0000 O   0  0  0  0  0  0  0  0  0  0  0  0
    5.0437    0.5202    0.0000 N   0  0  0  0  0  0  0  0  0  0  0  0
    5.8688    0.3370    0.0000 C   0  0  0  0  0  0  0  0  0  0  0  0
    6.2343    1.0767    0.0000 O   0  0  0  0  0  0  0  0  0  0  0  0
    6.5228   -0.2132    0.0000 C   0  0  0  0  0  0  0  0  0  0  0  0
    6.0969   -0.9335    0.0000 C   0  0  0  0  0  0  0  0  0  0  0  0
    6.6265   -1.5694    0.0000 S   0  0  0  0  0  0  0  0  0  0  0  0
    7.4125   -1.2812    0.0000 C   0  0  0  0  0  0  0  0  0  0  0  0
    7.3377   -0.4391    0.0000 N   0  0  0  0  0  0  0  0  0  0  0  0
    7.8914   -1.9897    0.0000 C   0  0  0  0  0  0  0  0  0  0  0  0
    8.4623   -1.3941    0.0000 C   0  0  0  0  0  0  0  0  0  0  0  0
    9.2636   -1.5907    0.0000 C   0  0  0  0  0  0  0  0  0  0  0  0
    9.8345   -0.9952    0.0000 O   0  0  0  0  0  0  0  0  0  0  0  0
    9.6042   -0.2030    0.0000 C   0  0  0  0  0  0  0  0  0  0  0  0
    9.4939   -2.3829    0.0000 C   0  0  0  0  0  0  0  0  0  0  0  0
   10.2951   -2.5796    0.0000 C   0  0  0  0  0  0  0  0  0  0  0  0
   10.9251   -2.0469    0.0000 N   0  0  0  0  0  0  0  0  0  0  0  0
   11.6264   -2.4815    0.0000 C   0  0  0  0  0  0  0  0  0  0  0  0
   12.3902   -2.1697    0.0000 C   0  0  0  0  0  0  0  0  0  0  0  0
   12.5020   -1.3523    0.0000 O   0  0  0  0  0  0  0  0  0  0  0  0
   13.0422   -2.6752    0.0000 N   0  0  0  0  0  0  0  0  0  0  0  0
   13.8059   -2.3633    0.0000 C   0  0  0  0  0  0  0  0  0  0  0  0
   14.4579   -2.8688    0.0000 C   0  0  0  0  0  0  0  0  0  0  0  0
   15.2217   -2.5570    0.0000 C   0  0  0  0  0  0  0  0  0  0  0  0
   15.8737   -3.0625    0.0000 N   0  0  0  0  0  0  0  0  0  0  0  0
   16.6375   -2.7506    0.0000 C   0  0  0  0  0  0  0  0  0  0  0  0
   17.2894   -3.2561    0.0000 C   0  0  0  0  0  0  0  0  0  0  0  0
   17.1776   -4.0735    0.0000 O   0  0  0  0  0  0  0  0  0  0  0  0
   16.4138   -4.3854    0.0000 C   0  0  0  0  0  0  0  0  0  0  0  0
   15.7619   -3.8799    0.0000 C   0  0  0  0  0  0  0  0  0  0  0  0
   11.4298   -3.2828    0.0000 C   0  0  0  0  0  0  0  0  0  0  0  0
   10.6070   -3.3433    0.0000 S   0  0  0  0  0  0  0  0  0  0  0  0
    8.9230   -2.9785    0.0000 N   0  0  0  0  0  0  0  0  0  0  0  0
    8.1218   -2.7819    0.0000 C   0  0  0  0  0  0  0  0  0  0  0  0
    8.2956   -3.6413    0.0000 C   0  0  0  0  0  0  0  0  0  0  0  0
    8.9183   -4.2089    0.0000 C   0  0  0  0  0  0  0  0  0  0  0  0
    8.6110   -4.9831    0.0000 S   0  0  0  0  0  0  0  0  0  0  0  0
    7.7778   -4.9192    0.0000 C   0  0  0  0  0  0  0  0  0  0  0  0
    7.6005   -4.1009    0.0000 N   0  0  0  0  0  0  0  0  0  0  0  0
    7.0516   -5.3811    0.0000 C   0  0  2  0  0  0  0  0  0  0  0  0
    6.6299   -6.1424    0.0000 C   0  0  0  0  0  0  0  0  0  0  0  0
    6.2640   -7.0610    0.0000 O   0  0  0  0  0  0  0  0  0  0  0  0
    5.4984   -7.6939    0.0000 C   0  0  0  0  0  0  0  0  0  0  0  0
    5.9618   -8.3764    0.0000 O   0  0  0  0  0  0  0  0  0  0  0  0
    4.7255   -8.1182    0.0000 C   0  0  0  0  0  0  0  0  0  0  0  0
    4.7545   -7.2876    0.0000 C   0  0  0  0  0  0  0  0  0  0  0  0
    5.6140   -7.1614    0.0000 C   0  0  0  0  0  0  0  0  0  0  0  0
    6.0819   -6.4717    0.0000 C   0  0  0  0  0  0  0  0  0  0  0  0
    6.9931   -6.6707    0.0000 C   0  0  0  0  0  0  0  0  0  0  0  0
    7.3529   -7.4115    0.0000 C   0  0  0  0  0  0  0  0  0  0  0  0
    6.8697   -8.0712    0.0000 C   0  0  0  0  0  0  0  0  0  0  0  0
    6.0373   -7.9898    0.0000 C   0  0  0  0  0  0  0  0  0  0  0  0
    5.4158   -8.5598    0.0000 N   0  0  0  0  0  0  0  0  0  0  0  0
    5.4870   -9.3818    0.0000 O   0  0  0  0  0  0  0  0  0  0  0  0
    5.3626   -5.9403    0.0000 C   0  0  0  0  0  0  0  0  0  0  0  0
    4.5727   -5.5911    0.0000 O   0  0  0  0  0  0  0  0  0  0  0  0
    3.7760   -5.2273    0.0000 C   0  0  0  0  0  0  0  0  0  0  0  0
    4.0469   -4.4480    0.0000 O   0  0  0  0  0  0  0  0  0  0  0  0
    2.8490   -4.9998    0.0000 C   0  0  1  0  0  0  0  0  0  0  0  0
    2.1692   -4.5323    0.0000 O   0  0  0  0  0  0  0  0  0  0  0  0
    1.4245   -4.8872    0.0000 C   0  0  1  0  0  0  0  0  0  0  0  0
    1.3595   -5.7097    0.0000 C   0  0  0  0  0  0  0  0  0  0  0  0
    0.6147   -6.0646    0.0000 C   0  0  2  0  0  0  0  0  0  0  0  0
    1.0936   -6.7364    0.0000 C   0  0  0  0  0  0  0  0  0  0  0  0
    0.0363   -6.6528    0.0000 O   0  0  0  0  0  0  0  0  0  0  0  0
   -0.0650   -5.5971    0.0000 C   0  0  2  0  0  0  0  0  0  0  0  0
   -0.8098   -5.9520    0.0000 N   0  0  0  0  0  0  0  0  0  0  0  0
   -0.8747   -6.7745    0.0000 C   0  0  0  0  0  0  0  0  0  0  0  0
   -1.4895   -5.4845    0.0000 C   0  0  0  0  0  0  0  0  0  0  0  0
   -0.0000   -4.7747    0.0000 C   0  0  2  0  0  0  0  0  0  0  0  0
   -0.6798   -4.3072    0.0000 C   0  0  0  0  0  0  0  0  0  0  0  0
    0.7447   -4.4197    0.0000 O   0  0  0  0  0  0  0  0  0  0  0  0
    3.2584   -5.5900    0.0000 C   0  0  1  0  0  0  0  0  0  0  0  0
    3.2772   -6.4463    0.0000 O   0  0  0  0  0  0  0  0  0  0  0  0
    3.9521   -6.9651    0.0000 C   0  0  0  0  0  0  0  0  0  0  0  0
    3.4076   -4.6125    0.0000 C   0  0  2  0  0  0  0  0  0  0  0  0
    2.7926   -3.9803    0.0000 N   0  0  0  0  0  0  0  0  0  0  0  0
    2.0509   -3.5695    0.0000 C   0  0  0  0  0  0  0  0  0  0  0  0
    1.5094   -4.1920    0.0000 O   0  0  0  0  0  0  0  0  0  0  0  0
    1.5422   -2.8933    0.0000 C   0  0  0  0  0  0  0  0  0  0  0  0
    0.7596   -2.5659    0.0000 C   0  0  0  0  0  0  0  0  0  0  0  0
    0.8078   -1.7342    0.0000 S   0  0  0  0  0  0  0  0  0  0  0  0
    1.6194   -1.5109    0.0000 C   0  0  0  0  0  0  0  0  0  0  0  0
    2.0479   -2.2271    0.0000 N   0  0  0  0  0  0  0  0  0  0  0  0
    4.1073   -4.0523    0.0000 C   0  0  0  0  0  0  0  0  0  0  0  0
    4.8951   -4.3561    0.0000 N   0  0  0  0  0  0  0  0  0  0  0  0
    5.4659   -3.7573    0.0000 C   0  0  0  0  0  0  0  0  0  0  0  0
    5.0496   -3.0428    0.0000 C   0  0  0  0  0  0  0  0  0  0  0  0
    4.2380   -3.2201    0.0000 S   0  0  0  0  0  0  0  0  0  0  0  0
    6.2755   -3.9483    0.0000 C   0  0  0  0  0  0  0  0  0  0  0  0
    6.8469   -3.3533    0.0000 O   0  0  0  0  0  0  0  0  0  0  0  0
    6.4994   -4.7510    0.0000 N   0  0  0  0  0  0  0  0  0  0  0  0
  1  2  1  0  0  0  0
  2  3  1  0  0  0  0
  3  4  1  0  0  0  0
  3  5  2  0  0  0  0
  5  6  1  0  0  0  0
  6  7  1  0  0  0  0
  7  8  2  0  0  0  0
  9  7  1  0  0  0  0
  9 10  1  6  0  0  0
 10 11  1  0  0  0  0
 10 12  1  1  0  0  0
  9 13  1  0  0  0  0
 13 14  1  0  0  0  0
 14 15  2  0  0  0  0
 14 16  1  0  0  0  0
 16 17  4  0  0  0  0
 17 18  4  0  0  0  0
 18 19  4  0  0  0  0
 19 20  4  0  0  0  0
 16 20  4  0  0  0  0
 19 21  1  0  0  0  0
 21 22  4  0  0  0  0
 22 23  4  0  0  0  0
 23 24  1  0  0  0  0
 24 25  1  0  0  0  0
 23 26  4  0  0  0  0
 26 27  1  0  0  0  0
 27 28  4  0  0  0  0
 28 29  4  0  0  0  0
 29 30  1  0  0  0  0
 30 31  2  0  0  0  0
 30 32  1  0  0  0  0
 32 33  1  0  0  0  0
 33 34  1  0  0  0  0
 34 35  1  0  0  0  0
 35 36  1  0  0  0  0
 36 37  1  0  0  0  0
 37 38  1  0  0  0  0
 38 39  1  0  0  0  0
 39 40  1  0  0  0  0
 40 41  1  0  0  0  0
 36 41  1  0  0  0  0
 29 42  4  0  0  0  0
 42 43  4  0  0  0  0
 27 43  4  0  0  0  0
 26 44  4  0  0  0  0
 44 45  4  0  0  0  0
 21 45  4  0  0  0  0
 45 46  1  0  0  0  0
 46 47  4  0  0  0  0
 47 48  4  0  0  0  0
 48 49  4  0  0  0  0
 49 50  4  0  0  0  0
 46 50  4  0  0  0  0
 51 49  1  6  0  0  0
 51 52  1  0  0  0  0
 52 53  1  0  0  0  0
 53 54  1  0  0  0  0
 54 55  2  0  0  0  0
 54 56  1  0  0  0  0
 56 57  4  0  0  0  0
 57 58  4  0  0  0  0
 58 59  4  0  0  0  0
 59 60  4  0  0  0  0
 60 61  4  0  0  0  0
 61 62  4  0  0  0  0
 62 63  4  0  0  0  0
 58 63  4  0  0  0  0
 63 64  4  0  0  0  0
 56 64  4  0  0  0  0
 64 65  1  0  0  0  0
 59 66  1  0  0  0  0
 66 67  1  0  0  0  0
 67 68  1  0  0  0  0
 68 69  2  0  0  0  0
 70 68  1  0  0  0  0
 70 71  1  6  0  0  0
 72 71  1  1  0  0  0
 72 73  1  0  0  0  0
 74 73  1  0  0  0  0
 74 75  1  1  0  0  0
 74 76  1  6  0  0  0
 77 74  1  0  0  0  0
 77 78  1  6  0  0  0
 78 79  1  0  0  0  0
 78 80  1  0  0  0  0
 77 81  1  0  0  0  0
 81 82  1  6  0  0  0
 81 83  1  0  0  0  0
 72 83  1  0  0  0  0
 84 70  1  0  0  0  0
 84 85  1  6  0  0  0
 85 86  1  0  0  0  0
 57 86  1  0  0  0  0
 84 87  1  0  0  0  0
 87 88  1  0  0  0  0
 88 89  1  0  0  0  0
 89 90  2  0  0  0  0
 89 91  1  0  0  0  0
 91 92  4  0  0  0  0
 92 93  4  0  0  0  0
 93 94  4  0  0  0  0
  5 94  1  0  0  0  0
 94 95  4  0  0  0  0
 91 95  4  0  0  0  0
 87 96  1  6  0  0  0
 96 97  4  0  0  0  0
 97 98  4  0  0  0  0
 98 99  4  0  0  0  0
 99100  4  0  0  0  0
 96100  4  0  0  0  0
 98101  1  0  0  0  0
101102  2  0  0  0  0
101103  1  0  0  0  0
 51103  1  0  0  0  0
M  END
>  <CdId>
410

>  <Mol Weight>
1509.68

>  <Formula>
C66H72N14O18S5

>  <Molecule ChEMBL ID>
CHEMBL504492

>  <Molecule Max Phase>
None

>  <Molecular Weight>
1509.72

>  <#RO5 Violations>
None

>  <AlogP>
None

>  <Compound Key>
19

>  <Standard Type>
IC50

>  <Standard Relation>
'='

>  <Standard Value>
71000.0

>  <Standard Units>
nM

$$$$

  Mrv2114 03112311372D          

 30 34  0  0  0  0            999 V2000
    0.3020    5.2520    0.0000 C   0  0  0  0  0  0  0  0  0  0  0  0
    0.3020    4.4270    0.0000 O   0  0  0  0  0  0  0  0  0  0  0  0
   -0.4125    4.0145    0.0000 C   0  0  0  0  0  0  0  0  0  0  0  0
   -0.4125    3.1895    0.0000 N   0  0  0  0  0  0  0  0  0  0  0  0
   -1.1270    2.7770    0.0000 C   0  0  0  0  0  0  0  0  0  0  0  0
   -1.1270    1.9520    0.0000 C   0  0  0  0  0  0  0  0  0  0  0  0
   -0.4125    1.5395    0.0000 N   0  0  0  0  0  0  0  0  0  0  0  0
   -0.4125    0.7145    0.0000 O   0  0  0  0  0  0  0  0  0  0  0  0
   -1.1270    0.3020    0.0000 C   0  0  0  0  0  0  0  0  0  0  0  0
   -1.1270   -0.5230    0.0000 C   0  0  0  0  0  0  0  0  0  0  0  0
   -0.7145   -1.2375    0.0000 C   0  0  0  0  0  0  0  0  0  0  0  0
   -1.5395   -1.2375    0.0000 C   0  0  0  0  0  0  0  0  0  0  0  0
   -1.8414    0.7145    0.0000 C   0  0  0  0  0  0  0  0  0  0  0  0
   -2.5559    0.3020    0.0000 C   0  0  0  0  0  0  0  0  0  0  0  0
   -2.5559   -0.5230    0.0000 C   0  0  0  0  0  0  0  0  0  0  0  0
   -3.2704   -0.9355    0.0000 C   0  0  0  0  0  0  0  0  0  0  0  0
   -3.9849   -0.5230    0.0000 C   0  0  0  0  0  0  0  0  0  0  0  0
   -4.6993   -0.9355    0.0000 Cl  0  0  0  0  0  0  0  0  0  0  0  0
   -3.9849    0.3020    0.0000 C   0  0  0  0  0  0  0  0  0  0  0  0
   -3.2704    0.7145    0.0000 C   0  0  0  0  0  0  0  0  0  0  0  0
   -1.8414    1.5395    0.0000 N   0  0  0  0  0  0  0  0  0  0  0  0
   -1.8414    3.1895    0.0000 C   0  0  0  0  0  0  0  0  0  0  0  0
   -1.8414    4.0145    0.0000 C   0  0  0  0  0  0  0  0  0  0  0  0
   -1.1270    4.4270    0.0000 C   0  0  0  0  0  0  0  0  0  0  0  0
   -1.1270    5.2520    0.0000 N   0  0  0  0  0  0  0  0  0  0  0  0
   -1.7944    5.7369    0.0000 C   0  0  0  0  0  0  0  0  0  0  0  0
   -1.5395    6.5215    0.0000 N   0  0  0  0  0  0  0  0  0  0  0  0
   -0.7145    6.5215    0.0000 C   0  0  0  0  0  0  0  0  0  0  0  0
   -0.2295    7.1890    0.0000 C   0  0  0  0  0  0  0  0  0  0  0  0
   -0.4595    5.7369    0.0000 C   0  0  0  0  0  0  0  0  0  0  0  0
  1  2  1  0  0  0  0
  2  3  1  0  0  0  0
  3  4  4  0  0  0  0
  4  5  4  0  0  0  0
  5  6  1  0  0  0  0
  6  7  2  0  0  0  0
  7  8  1  0  0  0  0
  8  9  1  0  0  0  0
  9 10  1  0  0  0  0
 10 11  1  0  0  0  0
 11 12  1  0  0  0  0
 10 12  1  0  0  0  0
  9 13  1  0  0  0  0
 13 14  1  0  0  0  0
 14 15  4  0  0  0  0
 15 16  4  0  0  0  0
 16 17  4  0  0  0  0
 17 18  1  0  0  0  0
 17 19  4  0  0  0  0
 19 20  4  0  0  0  0
 14 20  4  0  0  0  0
 13 21  1  0  0  0  0
  6 21  1  0  0  0  0
  5 22  4  0  0  0  0
 22 23  4  0  0  0  0
 23 24  4  0  0  0  0
  3 24  4  0  0  0  0
 24 25  1  0  0  0  0
 25 26  4  0  0  0  0
 26 27  4  0  0  0  0
 27 28  4  0  0  0  0
 28 29  1  0  0  0  0
 28 30  4  0  0  0  0
 25 30  4  0  0  0  0
M  END
>  <CdId>
411

>  <Mol Weight>
423.9

>  <Formula>
C22H22ClN5O2

>  <Molecule ChEMBL ID>
CHEMBL4848062

>  <Molecule Max Phase>
None

>  <Molecular Weight>
423.9

>  <#RO5 Violations>
0

>  <AlogP>
4.04

>  <Compound Key>
41

>  <Standard Type>
IC50

>  <Standard Relation>
'='

>  <Standard Value>
2600.0

>  <Standard Units>
nM

$$$$

  Mrv2114 03112311372D          

 24 27  0  0  0  0            999 V2000
    4.0668    3.1729    0.0000 O   0  0  0  0  0  0  0  0  0  0  0  0
    4.0668    2.3479    0.0000 C   0  0  0  0  0  0  0  0  0  0  0  0
    4.7812    1.9354    0.0000 C   0  0  0  0  0  0  0  0  0  0  0  0
    5.4957    2.3479    0.0000 C   0  0  0  0  0  0  0  0  0  0  0  0
    6.2102    1.9354    0.0000 C   0  0  0  0  0  0  0  0  0  0  0  0
    6.2102    1.1104    0.0000 C   0  0  0  0  0  0  0  0  0  0  0  0
    5.4957    0.6979    0.0000 C   0  0  0  0  0  0  0  0  0  0  0  0
    4.7812    1.1104    0.0000 C   0  0  0  0  0  0  0  0  0  0  0  0
    3.3523    1.9354    0.0000 N   0  0  0  0  0  0  0  0  0  0  0  0
    3.3523    1.1104    0.0000 C   0  0  0  0  0  0  0  0  0  0  0  0
    2.6378    0.6979    0.0000 C   0  0  0  0  0  0  0  0  0  0  0  0
    1.9233    1.1104    0.0000 C   0  0  0  0  0  0  0  0  0  0  0  0
    1.1387    0.8555    0.0000 O   0  0  0  0  0  0  0  0  0  0  0  0
    0.6538    1.5229    0.0000 C   0  0  0  0  0  0  0  0  0  0  0  0
   -0.1712    1.5229    0.0000 C   0  0  0  0  0  0  0  0  0  0  0  0
   -0.5837    0.8085    0.0000 C   0  0  0  0  0  0  0  0  0  0  0  0
   -1.4087    0.8085    0.0000 C   0  0  0  0  0  0  0  0  0  0  0  0
   -1.8212    1.5229    0.0000 C   0  0  0  0  0  0  0  0  0  0  0  0
   -2.6462    1.5229    0.0000 F   0  0  0  0  0  0  0  0  0  0  0  0
   -1.4087    2.2374    0.0000 C   0  0  0  0  0  0  0  0  0  0  0  0
   -0.5837    2.2374    0.0000 N   0  0  0  0  0  0  0  0  0  0  0  0
    1.1387    2.1904    0.0000 N   0  0  0  0  0  0  0  0  0  0  0  0
    1.9233    1.9354    0.0000 C   0  0  0  0  0  0  0  0  0  0  0  0
    2.6378    2.3479    0.0000 C   0  0  0  0  0  0  0  0  0  0  0  0
  1  2  2  0  0  0  0
  2  3  1  0  0  0  0
  3  4  4  0  0  0  0
  4  5  4  0  0  0  0
  5  6  4  0  0  0  0
  6  7  4  0  0  0  0
  7  8  4  0  0  0  0
  3  8  4  0  0  0  0
  2  9  1  0  0  0  0
  9 10  1  0  0  0  0
 10 11  1  0  0  0  0
 11 12  1  0  0  0  0
 12 13  4  0  0  0  0
 13 14  4  0  0  0  0
 14 15  1  0  0  0  0
 15 16  4  0  0  0  0
 16 17  4  0  0  0  0
 17 18  4  0  0  0  0
 18 19  1  0  0  0  0
 18 20  4  0  0  0  0
 20 21  4  0  0  0  0
 15 21  4  0  0  0  0
 14 22  4  0  0  0  0
 22 23  4  0  0  0  0
 12 23  4  0  0  0  0
 23 24  1  0  0  0  0
  9 24  1  0  0  0  0
M  END
>  <CdId>
412

>  <Mol Weight>
323.327

>  <Formula>
C18H14FN3O2

>  <Molecule ChEMBL ID>
CHEMBL4060556

>  <Molecule Max Phase>
None

>  <Molecular Weight>
323.33

>  <#RO5 Violations>
0

>  <AlogP>
3.07

>  <Compound Key>
13

>  <Standard Type>
IC50

>  <Standard Relation>
'>'

>  <Standard Value>
50000.0

>  <Standard Units>
nM

$$$$

  Mrv2114 03112311372D          

 35 39  0  0  1  0            999 V2000
    8.1762   -5.3794    0.0000 C   0  0  0  0  0  0  0  0  0  0  0  0
    7.3640   -5.5246    0.0000 N   0  0  0  0  0  0  0  0  0  0  0  0
    7.0838   -6.3006    0.0000 C   0  0  0  0  0  0  0  0  0  0  0  0
    6.8322   -4.8939    0.0000 C   0  0  0  0  0  0  0  0  0  0  0  0
    6.0201   -5.0391    0.0000 C   0  0  0  0  0  0  0  0  0  0  0  0
    5.4883   -4.4084    0.0000 C   0  0  0  0  0  0  0  0  0  0  0  0
    5.7686   -3.6325    0.0000 C   0  0  0  0  0  0  0  0  0  0  0  0
    5.2368   -3.0018    0.0000 C   0  0  1  0  0  0  0  0  0  0  0  0
    4.4247   -3.1470    0.0000 C   0  0  0  0  0  0  0  0  0  0  0  0
    3.8928   -2.5163    0.0000 C   0  0  1  0  0  0  0  0  0  0  0  0
    3.5330   -3.2587    0.0000 C   0  0  0  0  0  0  0  0  0  0  0  0
    4.1731   -1.7404    0.0000 C   0  0  1  0  0  0  0  0  0  0  0  0
    3.5218   -1.2340    0.0000 C   0  0  0  0  0  0  0  0  0  0  0  0
    2.8390   -1.6970    0.0000 C   0  0  0  0  0  0  0  0  0  0  0  0
    3.0683   -2.4895    0.0000 C   0  0  2  0  0  0  0  0  0  0  0  0
    2.3074   -2.8084    0.0000 O   0  0  0  0  0  0  0  0  0  0  0  0
    2.9469   -3.3055    0.0000 C   0  0  0  0  0  0  0  0  0  0  0  0
    2.8255   -4.1215    0.0000 C   0  0  0  0  0  0  0  0  0  0  0  0
    2.7041   -4.9376    0.0000 C   0  0  0  0  0  0  0  0  0  0  0  0
    2.5827   -5.7536    0.0000 C   0  0  0  0  0  0  0  0  0  0  0  0
    1.8880   -4.8162    0.0000 C   0  0  0  0  0  0  0  0  0  0  0  0
    3.5201   -5.0590    0.0000 C   0  0  0  0  0  0  0  0  0  0  0  0
    4.9853   -1.5952    0.0000 C   0  0  2  0  0  0  0  0  0  0  0  0
    5.2655   -0.8192    0.0000 C   0  0  0  0  0  0  0  0  0  0  0  0
    6.0777   -0.6740    0.0000 C   0  0  0  0  0  0  0  0  0  0  0  0
    6.6095   -1.3047    0.0000 C   0  0  0  0  0  0  0  0  0  0  0  0
    7.4216   -1.1595    0.0000 C   0  0  0  0  0  0  0  0  0  0  0  0
    7.9534   -1.7902    0.0000 C   0  0  0  0  0  0  0  0  0  0  0  0
    8.7655   -1.6450    0.0000 O   0  0  0  0  0  0  0  0  0  0  0  0
    7.6731   -2.5662    0.0000 C   0  0  0  0  0  0  0  0  0  0  0  0
    6.8610   -2.7114    0.0000 C   0  0  0  0  0  0  0  0  0  0  0  0
    6.3292   -2.0807    0.0000 C   0  0  0  0  0  0  0  0  0  0  0  0
    5.5171   -2.2259    0.0000 C   0  0  0  0  0  0  0  0  0  0  0  0
    6.5807   -3.4873    0.0000 C   0  0  0  0  0  0  0  0  0  0  0  0
    7.1125   -4.1180    0.0000 C   0  0  0  0  0  0  0  0  0  0  0  0
  1  2  1  0  0  0  0
  2  3  1  0  0  0  0
  2  4  1  0  0  0  0
  4  5  4  0  0  0  0
  5  6  4  0  0  0  0
  6  7  4  0  0  0  0
  8  7  1  1  0  0  0
  8  9  1  0  0  0  0
 10  9  1  0  0  0  0
 10 11  1  1  0  0  0
 10 12  1  0  0  0  0
 12 13  1  1  0  0  0
 13 14  1  0  0  0  0
 15 14  1  0  0  0  0
 10 15  1  0  0  0  0
 15 16  1  1  0  0  0
 15 17  1  6  0  0  0
 17 18  3  0  0  0  0
 18 19  1  0  0  0  0
 19 20  1  0  0  0  0
 19 21  1  0  0  0  0
 19 22  1  0  0  0  0
 12 23  1  0  0  0  0
 23 24  1  6  0  0  0
 24 25  1  0  0  0  0
 25 26  1  0  0  0  0
 26 27  2  0  0  0  0
 27 28  1  0  0  0  0
 28 29  2  0  0  0  0
 28 30  1  0  0  0  0
 30 31  1  0  0  0  0
 31 32  1  0  0  0  0
 26 32  1  0  0  0  0
 32 33  2  0  0  0  0
 23 33  1  0  0  0  0
  8 33  1  0  0  0  0
  7 34  4  0  0  0  0
 34 35  4  0  0  0  0
  4 35  4  0  0  0  0
M  END
>  <CdId>
413

>  <Mol Weight>
471.685

>  <Formula>
C32H41NO2

>  <Molecule ChEMBL ID>
CHEMBL4163069

>  <Molecule Max Phase>
None

>  <Molecular Weight>
471.69

>  <#RO5 Violations>
1

>  <AlogP>
6.43

>  <Compound Key>
2

>  <Standard Type>
IC50

>  <Standard Relation>
'>'

>  <Standard Value>
10000.0

>  <Standard Units>
nM

$$$$

  Mrv2114 03112311372D          

 34 38  0  0  0  0            999 V2000
   -5.1212    5.0178    0.0000 C   0  0  0  0  0  0  0  0  0  0  0  0
   -4.2962    5.0178    0.0000 O   0  0  0  0  0  0  0  0  0  0  0  0
   -3.8837    4.3034    0.0000 C   0  0  0  0  0  0  0  0  0  0  0  0
   -3.0587    4.3034    0.0000 C   0  0  0  0  0  0  0  0  0  0  0  0
   -2.6462    3.5889    0.0000 C   0  0  0  0  0  0  0  0  0  0  0  0
   -3.0587    2.8744    0.0000 C   0  0  0  0  0  0  0  0  0  0  0  0
   -2.6462    2.1599    0.0000 C   0  0  0  0  0  0  0  0  0  0  0  0
   -1.8212    2.1599    0.0000 C   0  0  0  0  0  0  0  0  0  0  0  0
   -1.4087    1.4455    0.0000 N   0  0  0  0  0  0  0  0  0  0  0  0
   -0.5837    1.4455    0.0000 C   0  0  0  0  0  0  0  0  0  0  0  0
   -0.1712    0.7310    0.0000 C   0  0  0  0  0  0  0  0  0  0  0  0
   -0.5837    0.0165    0.0000 C   0  0  0  0  0  0  0  0  0  0  0  0
   -0.1712   -0.6979    0.0000 N   0  0  0  0  0  0  0  0  0  0  0  0
    0.6538   -0.6979    0.0000 C   0  0  0  0  0  0  0  0  0  0  0  0
    1.1387   -0.0305    0.0000 N   0  0  0  0  0  0  0  0  0  0  0  0
    1.9233   -0.2854    0.0000 C   0  0  0  0  0  0  0  0  0  0  0  0
    2.6378    0.1271    0.0000 C   0  0  0  0  0  0  0  0  0  0  0  0
    3.3523   -0.2854    0.0000 C   0  0  0  0  0  0  0  0  0  0  0  0
    3.3523   -1.1104    0.0000 C   0  0  0  0  0  0  0  0  0  0  0  0
    2.6378   -1.5229    0.0000 C   0  0  0  0  0  0  0  0  0  0  0  0
    1.9233   -1.1104    0.0000 C   0  0  0  0  0  0  0  0  0  0  0  0
    1.1387   -1.3654    0.0000 N   0  0  0  0  0  0  0  0  0  0  0  0
    0.8838   -2.1500    0.0000 C   0  0  0  0  0  0  0  0  0  0  0  0
    1.4358   -2.7631    0.0000 C   0  0  0  0  0  0  0  0  0  0  0  0
    2.2428   -2.5916    0.0000 C   0  0  0  0  0  0  0  0  0  0  0  0
    2.7948   -3.2047    0.0000 C   0  0  0  0  0  0  0  0  0  0  0  0
    2.5399   -3.9893    0.0000 C   0  0  0  0  0  0  0  0  0  0  0  0
    3.0919   -4.6024    0.0000 F   0  0  0  0  0  0  0  0  0  0  0  0
    1.7329   -4.1608    0.0000 C   0  0  0  0  0  0  0  0  0  0  0  0
    1.1809   -3.5477    0.0000 C   0  0  0  0  0  0  0  0  0  0  0  0
   -1.4087    0.0165    0.0000 C   0  0  0  0  0  0  0  0  0  0  0  0
   -1.8212    0.7310    0.0000 C   0  0  0  0  0  0  0  0  0  0  0  0
   -3.8837    2.8744    0.0000 C   0  0  0  0  0  0  0  0  0  0  0  0
   -4.2962    3.5889    0.0000 C   0  0  0  0  0  0  0  0  0  0  0  0
  1  2  1  0  0  0  0
  2  3  1  0  0  0  0
  3  4  4  0  0  0  0
  4  5  4  0  0  0  0
  5  6  4  0  0  0  0
  6  7  1  0  0  0  0
  7  8  1  0  0  0  0
  8  9  1  0  0  0  0
  9 10  1  0  0  0  0
 10 11  1  0  0  0  0
 11 12  1  0  0  0  0
 12 13  1  0  0  0  0
 13 14  1  0  0  0  0
 14 15  4  0  0  0  0
 15 16  4  0  0  0  0
 16 17  4  0  0  0  0
 17 18  4  0  0  0  0
 18 19  4  0  0  0  0
 19 20  4  0  0  0  0
 20 21  4  0  0  0  0
 16 21  4  0  0  0  0
 21 22  4  0  0  0  0
 14 22  4  0  0  0  0
 22 23  1  0  0  0  0
 23 24  1  0  0  0  0
 24 25  4  0  0  0  0
 25 26  4  0  0  0  0
 26 27  4  0  0  0  0
 27 28  1  0  0  0  0
 27 29  4  0  0  0  0
 29 30  4  0  0  0  0
 24 30  4  0  0  0  0
 12 31  1  0  0  0  0
 31 32  1  0  0  0  0
  9 32  1  0  0  0  0
  6 33  4  0  0  0  0
 33 34  4  0  0  0  0
  3 34  4  0  0  0  0
M  END
>  <CdId>
414

>  <Mol Weight>
458.581

>  <Formula>
C28H31FN4O

>  <Molecule ChEMBL ID>
CHEMBL296419

>  <Molecule Name>
ASTEMIZOLE

>  <Molecule Max Phase>
4

>  <Molecular Weight>
458.58

>  <#RO5 Violations>
1

>  <AlogP>
5.35

>  <Compound Key>
Astemizole

>  <Standard Type>
IC50

>  <Standard Relation>
'>'

>  <Standard Value>
30000.0

>  <Standard Units>
nM

$$$$

  Mrv2114 03112311372D          

 34 37  0  0  0  0            999 V2000
   -6.6000    0.2211    0.0000 C   0  0  0  0  0  0  0  0  0  0  0  0
   -6.6000   -0.6039    0.0000 C   0  0  0  0  0  0  0  0  0  0  0  0
   -5.8855   -1.0164    0.0000 C   0  0  0  0  0  0  0  0  0  0  0  0
   -5.8855   -1.8414    0.0000 C   0  0  0  0  0  0  0  0  0  0  0  0
   -5.1711   -2.2539    0.0000 C   0  0  0  0  0  0  0  0  0  0  0  0
   -5.1711   -3.0789    0.0000 C   0  0  0  0  0  0  0  0  0  0  0  0
   -5.8855   -3.4914    0.0000 C   0  0  0  0  0  0  0  0  0  0  0  0
   -5.8855   -4.3164    0.0000 C   0  0  0  0  0  0  0  0  0  0  0  0
   -6.6000   -4.7289    0.0000 O   0  0  0  0  0  0  0  0  0  0  0  0
   -5.1711   -4.7289    0.0000 C   0  0  0  0  0  0  0  0  0  0  0  0
   -5.1711   -5.5539    0.0000 C   0  0  0  0  0  0  0  0  0  0  0  0
   -4.4566   -5.9664    0.0000 C   0  0  0  0  0  0  0  0  0  0  0  0
   -4.4566   -6.7914    0.0000 N   0  0  0  0  0  0  0  0  0  0  0  0
   -3.7421   -7.2039    0.0000 C   0  0  0  0  0  0  0  0  0  0  0  0
   -3.7421   -8.0289    0.0000 C   0  0  0  0  0  0  0  0  0  0  0  0
   -4.4566   -8.4414    0.0000 C   0  0  0  0  0  0  0  0  0  0  0  0
   -4.4566   -9.2664    0.0000 C   0  0  0  0  0  0  0  0  0  0  0  0
   -5.2816   -9.2664    0.0000 O   0  0  0  0  0  0  0  0  0  0  0  0
   -4.4566  -10.0914    0.0000 C   0  0  0  0  0  0  0  0  0  0  0  0
   -3.7421  -10.5039    0.0000 C   0  0  0  0  0  0  0  0  0  0  0  0
   -3.7421  -11.3289    0.0000 C   0  0  0  0  0  0  0  0  0  0  0  0
   -4.4566  -11.7414    0.0000 C   0  0  0  0  0  0  0  0  0  0  0  0
   -5.1711  -11.3289    0.0000 C   0  0  0  0  0  0  0  0  0  0  0  0
   -5.1711  -10.5039    0.0000 C   0  0  0  0  0  0  0  0  0  0  0  0
   -3.6316   -9.2664    0.0000 C   0  0  0  0  0  0  0  0  0  0  0  0
   -3.2191   -8.5520    0.0000 C   0  0  0  0  0  0  0  0  0  0  0  0
   -2.3941   -8.5520    0.0000 C   0  0  0  0  0  0  0  0  0  0  0  0
   -1.9816   -9.2664    0.0000 C   0  0  0  0  0  0  0  0  0  0  0  0
   -2.3941   -9.9809    0.0000 C   0  0  0  0  0  0  0  0  0  0  0  0
   -3.2191   -9.9809    0.0000 C   0  0  0  0  0  0  0  0  0  0  0  0
   -5.1711   -8.0289    0.0000 C   0  0  0  0  0  0  0  0  0  0  0  0
   -5.1711   -7.2039    0.0000 C   0  0  0  0  0  0  0  0  0  0  0  0
   -6.6000   -3.0789    0.0000 C   0  0  0  0  0  0  0  0  0  0  0  0
   -6.6000   -2.2539    0.0000 C   0  0  0  0  0  0  0  0  0  0  0  0
  1  2  2  0  0  0  0
  2  3  1  0  0  0  0
  3  4  1  0  0  0  0
  4  5  4  0  0  0  0
  5  6  4  0  0  0  0
  6  7  4  0  0  0  0
  7  8  1  0  0  0  0
  8  9  2  0  0  0  0
  8 10  1  0  0  0  0
 10 11  1  0  0  0  0
 11 12  1  0  0  0  0
 12 13  1  0  0  0  0
 13 14  1  0  0  0  0
 14 15  1  0  0  0  0
 15 16  1  0  0  0  0
 16 17  1  0  0  0  0
 17 18  1  0  0  0  0
 17 19  1  0  0  0  0
 19 20  4  0  0  0  0
 20 21  4  0  0  0  0
 21 22  4  0  0  0  0
 22 23  4  0  0  0  0
 23 24  4  0  0  0  0
 19 24  4  0  0  0  0
 17 25  1  0  0  0  0
 25 26  4  0  0  0  0
 26 27  4  0  0  0  0
 27 28  4  0  0  0  0
 28 29  4  0  0  0  0
 29 30  4  0  0  0  0
 25 30  4  0  0  0  0
 16 31  1  0  0  0  0
 31 32  1  0  0  0  0
 13 32  1  0  0  0  0
  7 33  4  0  0  0  0
 33 34  4  0  0  0  0
  4 34  4  0  0  0  0
M  END
>  <CdId>
415

>  <Mol Weight>
453.626

>  <Formula>
C31H35NO2

>  <Molecule ChEMBL ID>
CHEMBL207831

>  <Molecule Max Phase>
None

>  <Molecular Weight>
453.63

>  <#RO5 Violations>
1

>  <AlogP>
6.03

>  <Compound Key>
5

>  <Standard Type>
IC50

>  <Standard Relation>
'>'

>  <Standard Value>
100000.0

>  <Standard Units>
nM

$$$$

  Mrv2114 03112311372D          

 20 21  0  0  0  0            999 V2000
    7.5706   -1.7343    0.0000 O   0  0  0  0  0  0  0  0  0  0  0  0
    8.2850   -2.1468    0.0000 C   0  0  0  0  0  0  0  0  0  0  0  0
    8.2850   -2.9718    0.0000 O   0  0  0  0  0  0  0  0  0  0  0  0
    8.9995   -1.7343    0.0000 C   0  0  0  0  0  0  0  0  0  0  0  0
    9.7140   -2.1468    0.0000 C   0  0  0  0  0  0  0  0  0  0  0  0
   10.4284   -1.7343    0.0000 C   0  0  0  0  0  0  0  0  0  0  0  0
   11.1429   -2.1468    0.0000 C   0  0  0  0  0  0  0  0  0  0  0  0
   11.8574   -1.7343    0.0000 C   0  0  0  0  0  0  0  0  0  0  0  0
   12.5719   -2.1468    0.0000 C   0  0  0  0  0  0  0  0  0  0  0  0
   13.2863   -1.7343    0.0000 C   0  0  0  0  0  0  0  0  0  0  0  0
   14.0008   -2.1468    0.0000 N   0  0  0  0  0  0  0  0  0  0  0  0
   14.7153   -1.7343    0.0000 N   0  0  0  0  0  0  0  0  0  0  0  0
   14.8015   -0.9138    0.0000 N   0  0  0  0  0  0  0  0  0  0  0  0
   15.6085   -0.7423    0.0000 N   0  0  0  0  0  0  0  0  0  0  0  0
   16.0210   -1.4567    0.0000 C   0  0  0  0  0  0  0  0  0  0  0  0
   16.8279   -1.6283    0.0000 C   0  0  0  0  0  0  0  0  0  0  0  0
   17.0829   -2.4129    0.0000 C   0  0  0  0  0  0  0  0  0  0  0  0
   16.5309   -3.0260    0.0000 C   0  0  0  0  0  0  0  0  0  0  0  0
   15.7239   -2.8545    0.0000 C   0  0  0  0  0  0  0  0  0  0  0  0
   15.4689   -2.0698    0.0000 C   0  0  0  0  0  0  0  0  0  0  0  0
  1  2  2  0  0  0  0
  2  3  1  0  0  0  0
  2  4  1  0  0  0  0
  4  5  1  0  0  0  0
  5  6  1  0  0  0  0
  6  7  1  0  0  0  0
  7  8  1  0  0  0  0
  8  9  1  0  0  0  0
  9 10  1  0  0  0  0
 10 11  1  0  0  0  0
 11 12  1  0  0  0  0
 12 13  4  0  0  0  0
 13 14  4  0  0  0  0
 14 15  4  0  0  0  0
 15 16  4  0  0  0  0
 16 17  4  0  0  0  0
 17 18  4  0  0  0  0
 18 19  4  0  0  0  0
 19 20  4  0  0  0  0
 15 20  4  0  0  0  0
 12 20  4  0  0  0  0
M  END
>  <CdId>
416

>  <Mol Weight>
276.34

>  <Formula>
C14H20N4O2

>  <Molecule ChEMBL ID>
CHEMBL4557940

>  <Molecule Max Phase>
None

>  <Molecular Weight>
276.34

>  <#RO5 Violations>
0

>  <AlogP>
2.4

>  <Compound Key>
7

>  <Standard Type>
IC50

>  <Standard Relation>
'='

>  <Standard Value>
306000.0

>  <Standard Units>
nM

$$$$

  Mrv2114 03112311372D          

 18 19  0  0  0  0            999 V2000
    6.2116   -1.2927    0.0000 O   0  0  0  0  0  0  0  0  0  0  0  0
    6.9260   -1.7052    0.0000 C   0  0  0  0  0  0  0  0  0  0  0  0
    6.9260   -2.5302    0.0000 O   0  0  0  0  0  0  0  0  0  0  0  0
    7.6405   -1.2927    0.0000 C   0  0  0  0  0  0  0  0  0  0  0  0
    8.3550   -1.7052    0.0000 C   0  0  0  0  0  0  0  0  0  0  0  0
    9.0694   -1.2927    0.0000 C   0  0  0  0  0  0  0  0  0  0  0  0
    9.7839   -1.7052    0.0000 C   0  0  0  0  0  0  0  0  0  0  0  0
   10.4984   -1.2927    0.0000 C   0  0  0  0  0  0  0  0  0  0  0  0
   11.2128   -1.7052    0.0000 N   0  0  0  0  0  0  0  0  0  0  0  0
   11.9273   -1.2927    0.0000 N   0  0  0  0  0  0  0  0  0  0  0  0
   12.0136   -0.4722    0.0000 N   0  0  0  0  0  0  0  0  0  0  0  0
   12.8205   -0.3007    0.0000 N   0  0  0  0  0  0  0  0  0  0  0  0
   13.2330   -1.0152    0.0000 C   0  0  0  0  0  0  0  0  0  0  0  0
   14.0400   -1.1867    0.0000 C   0  0  0  0  0  0  0  0  0  0  0  0
   14.2949   -1.9713    0.0000 C   0  0  0  0  0  0  0  0  0  0  0  0
   13.7429   -2.5844    0.0000 C   0  0  0  0  0  0  0  0  0  0  0  0
   12.9359   -2.4129    0.0000 C   0  0  0  0  0  0  0  0  0  0  0  0
   12.6810   -1.6283    0.0000 C   0  0  0  0  0  0  0  0  0  0  0  0
  1  2  2  0  0  0  0
  2  3  1  0  0  0  0
  2  4  1  0  0  0  0
  4  5  1  0  0  0  0
  5  6  1  0  0  0  0
  6  7  1  0  0  0  0
  7  8  1  0  0  0  0
  8  9  1  0  0  0  0
  9 10  1  0  0  0  0
 10 11  4  0  0  0  0
 11 12  4  0  0  0  0
 12 13  4  0  0  0  0
 13 14  4  0  0  0  0
 14 15  4  0  0  0  0
 15 16  4  0  0  0  0
 16 17  4  0  0  0  0
 17 18  4  0  0  0  0
 13 18  4  0  0  0  0
 10 18  4  0  0  0  0
M  END
>  <CdId>
417

>  <Mol Weight>
248.286

>  <Formula>
C12H16N4O2

>  <Molecule ChEMBL ID>
CHEMBL4442292

>  <Molecule Max Phase>
None

>  <Molecular Weight>
248.29

>  <#RO5 Violations>
0

>  <AlogP>
1.62

>  <Compound Key>
6

>  <Standard Type>
IC50

>  <Standard Relation>
'='

>  <Standard Value>
954000.0

>  <Standard Units>
nM

$$$$

  Mrv2114 03112311372D          

 45 49  0  0  1  0            999 V2000
   -2.6410   -5.9694    0.0000 N   0  0  0  0  0  0  0  0  0  0  0  0
   -2.6152   -5.1448    0.0000 C   0  0  0  0  0  0  0  0  0  0  0  0
   -2.5894   -4.3202    0.0000 C   0  0  0  0  0  0  0  0  0  0  0  0
   -1.8624   -3.9303    0.0000 C   0  0  0  0  0  0  0  0  0  0  0  0
   -1.8367   -3.1057    0.0000 N   0  0  0  0  0  0  0  0  0  0  0  0
   -2.4887   -2.6001    0.0000 C   0  0  0  0  0  0  0  0  0  0  0  0
   -3.2809   -2.8304    0.0000 O   0  0  0  0  0  0  0  0  0  0  0  0
   -2.2093   -1.8239    0.0000 C   0  0  0  0  0  0  0  0  0  0  0  0
   -1.3847   -1.8496    0.0000 C   0  0  0  0  0  0  0  0  0  0  0  0
   -1.1544   -2.6418    0.0000 C   0  0  1  0  0  0  0  0  0  0  0  0
   -0.3781   -2.9211    0.0000 C   0  0  0  0  0  0  0  0  0  0  0  0
   -0.2319   -3.7331    0.0000 O   0  0  0  0  0  0  0  0  0  0  0  0
    0.2519   -2.3885    0.0000 N   0  0  0  0  0  0  0  0  0  0  0  0
    0.1913   -1.5657    0.0000 C   0  0  0  0  0  0  0  0  0  0  0  0
    0.9551   -1.2539    0.0000 C   0  0  0  0  0  0  0  0  0  0  0  0
    1.4877   -1.8839    0.0000 C   0  0  1  0  0  0  0  0  0  0  0  0
    1.8467   -1.1411    0.0000 S   0  0  0  0  0  0  0  0  0  0  0  0
    2.5737   -0.7511    0.0000 O   0  0  0  0  0  0  0  0  0  0  0  0
    1.1038   -0.7822    0.0000 O   0  0  0  0  0  0  0  0  0  0  0  0
    2.2056   -0.3983    0.0000 C   0  0  0  0  0  0  0  0  0  0  0  0
    1.7417    0.2840    0.0000 C   0  0  0  0  0  0  0  0  0  0  0  0
    2.1007    1.0268    0.0000 C   0  0  0  0  0  0  0  0  0  0  0  0
    2.9234    1.0874    0.0000 C   0  0  0  0  0  0  0  0  0  0  0  0
    3.2824    1.8302    0.0000 F   0  0  0  0  0  0  0  0  0  0  0  0
    3.3873    0.4051    0.0000 C   0  0  0  0  0  0  0  0  0  0  0  0
    3.0284   -0.3377    0.0000 C   0  0  0  0  0  0  0  0  0  0  0  0
    2.3123   -1.9097    0.0000 C   0  0  0  0  0  0  0  0  0  0  0  0
    2.7469   -1.2084    0.0000 C   0  0  0  0  0  0  0  0  0  0  0  0
    3.5715   -1.2342    0.0000 N   0  0  0  0  0  0  0  0  0  0  0  0
    3.9615   -1.9612    0.0000 C   0  0  0  0  0  0  0  0  0  0  0  0
    4.7861   -1.9870    0.0000 C   0  0  0  0  0  0  0  0  0  0  0  0
    4.8119   -1.1624    0.0000 F   0  0  0  0  0  0  0  0  0  0  0  0
    4.7603   -2.8116    0.0000 C   0  0  0  0  0  0  0  0  0  0  0  0
    4.7346   -3.6362    0.0000 F   0  0  0  0  0  0  0  0  0  0  0  0
    3.9358   -2.7858    0.0000 F   0  0  0  0  0  0  0  0  0  0  0  0
    5.5849   -2.8373    0.0000 F   0  0  0  0  0  0  0  0  0  0  0  0
    5.6107   -2.0127    0.0000 C   0  0  0  0  0  0  0  0  0  0  0  0
    6.4353   -2.0385    0.0000 F   0  0  0  0  0  0  0  0  0  0  0  0
    6.0746   -2.6950    0.0000 F   0  0  0  0  0  0  0  0  0  0  0  0
    5.6365   -1.1881    0.0000 F   0  0  0  0  0  0  0  0  0  0  0  0
    3.5269   -2.6624    0.0000 C   0  0  0  0  0  0  0  0  0  0  0  0
    2.7023   -2.6367    0.0000 C   0  0  0  0  0  0  0  0  0  0  0  0
    2.2677   -3.3379    0.0000 C   0  0  0  0  0  0  0  0  0  0  0  0
    1.4431   -3.3122    0.0000 C   0  0  0  0  0  0  0  0  0  0  0  0
    1.0531   -2.5852    0.0000 C   0  0  1  0  0  0  0  0  0  0  0  0
  1  2  3  0  0  0  0
  2  3  1  0  0  0  0
  3  4  1  0  0  0  0
  4  5  1  0  0  0  0
  5  6  1  0  0  0  0
  6  7  2  0  0  0  0
  6  8  1  0  0  0  0
  8  9  1  0  0  0  0
 10  9  1  0  0  0  0
 10  5  1  0  0  0  0
 10 11  1  1  0  0  0
 11 12  2  0  0  0  0
 11 13  1  0  0  0  0
 13 14  1  0  0  0  0
 14 15  1  0  0  0  0
 16 15  1  0  0  0  0
 16 17  1  6  0  0  0
 17 18  2  0  0  0  0
 17 19  2  0  0  0  0
 17 20  1  0  0  0  0
 20 21  4  0  0  0  0
 21 22  4  0  0  0  0
 22 23  4  0  0  0  0
 23 24  1  0  0  0  0
 23 25  4  0  0  0  0
 25 26  4  0  0  0  0
 20 26  4  0  0  0  0
 16 27  1  0  0  0  0
 27 28  4  0  0  0  0
 28 29  4  0  0  0  0
 29 30  4  0  0  0  0
 30 31  1  0  0  0  0
 31 32  1  0  0  0  0
 31 33  1  0  0  0  0
 33 34  1  0  0  0  0
 33 35  1  0  0  0  0
 33 36  1  0  0  0  0
 31 37  1  0  0  0  0
 37 38  1  0  0  0  0
 37 39  1  0  0  0  0
 37 40  1  0  0  0  0
 30 41  4  0  0  0  0
 41 42  4  0  0  0  0
 27 42  4  0  0  0  0
 42 43  1  0  0  0  0
 43 44  1  0  0  0  0
 45 44  1  0  0  0  0
 45 13  1  1  0  0  0
 16 45  1  0  0  0  0
M  END
>  <CdId>
418

>  <Mol Weight>
664.57

>  <Formula>
C28H24F8N4O4S

>  <Molecule ChEMBL ID>
CHEMBL4748187

>  <Molecule Max Phase>
None

>  <Molecular Weight>
664.57

>  <#RO5 Violations>
1

>  <AlogP>
4.63

>  <Compound Key>
6b

>  <Standard Type>
IC50

>  <Standard Relation>
'>'

>  <Standard Value>
20000.0

>  <Standard Units>
nM

$$$$

  Mrv2114 03112311372D          

 29 31  0  0  1  0            999 V2000
    1.0468   -5.8331    0.0000 N   0  0  0  0  0  0  0  0  0  0  0  0
    1.7613   -5.4206    0.0000 C   0  0  0  0  0  0  0  0  0  0  0  0
    1.7613   -4.5956    0.0000 C   0  0  2  0  0  0  0  0  0  0  0  0
    2.4757   -4.1831    0.0000 N   0  0  0  0  0  0  0  0  0  0  0  0
    3.1902   -4.5956    0.0000 C   0  0  0  0  0  0  0  0  0  0  0  0
    3.1902   -5.4206    0.0000 O   0  0  0  0  0  0  0  0  0  0  0  0
    3.9047   -4.1831    0.0000 C   0  0  0  0  0  0  0  0  0  0  0  0
    3.9909   -3.3626    0.0000 C   0  0  0  0  0  0  0  0  0  0  0  0
    4.7979   -3.1911    0.0000 C   0  0  0  0  0  0  0  0  0  0  0  0
    5.2104   -3.9056    0.0000 C   0  0  0  0  0  0  0  0  0  0  0  0
    6.0309   -3.9918    0.0000 C   0  0  0  0  0  0  0  0  0  0  0  0
    6.5158   -3.3244    0.0000 C   0  0  0  0  0  0  0  0  0  0  0  0
    7.3363   -3.4106    0.0000 C   0  0  0  0  0  0  0  0  0  0  0  0
    7.6718   -4.1643    0.0000 C   0  0  0  0  0  0  0  0  0  0  0  0
    8.4923   -4.2505    0.0000 C   0  0  0  0  0  0  0  0  0  0  0  0
    9.3128   -4.3367    0.0000 F   0  0  0  0  0  0  0  0  0  0  0  0
    8.5785   -3.4300    0.0000 F   0  0  0  0  0  0  0  0  0  0  0  0
    8.4061   -5.0710    0.0000 F   0  0  0  0  0  0  0  0  0  0  0  0
    7.1869   -4.8317    0.0000 C   0  0  0  0  0  0  0  0  0  0  0  0
    7.5225   -5.5854    0.0000 F   0  0  0  0  0  0  0  0  0  0  0  0
    6.3664   -4.7455    0.0000 C   0  0  0  0  0  0  0  0  0  0  0  0
    4.6583   -4.5187    0.0000 N   0  0  0  0  0  0  0  0  0  0  0  0
    1.0468   -4.1831    0.0000 C   0  0  0  0  0  0  0  0  0  0  0  0
    0.2931   -4.5187    0.0000 N   0  0  0  0  0  0  0  0  0  0  0  0
   -0.2589   -3.9056    0.0000 C   0  0  0  0  0  0  0  0  0  0  0  0
   -1.0794   -3.9918    0.0000 C   0  0  0  0  0  0  0  0  0  0  0  0
   -1.4150   -4.7455    0.0000 O   0  0  0  0  0  0  0  0  0  0  0  0
    0.1536   -3.1911    0.0000 C   0  0  0  0  0  0  0  0  0  0  0  0
    0.9606   -3.3626    0.0000 S   0  0  0  0  0  0  0  0  0  0  0  0
  1  2  1  0  0  0  0
  3  2  1  0  0  0  0
  3  4  1  1  0  0  0
  4  5  1  0  0  0  0
  5  6  2  0  0  0  0
  5  7  1  0  0  0  0
  7  8  4  0  0  0  0
  8  9  4  0  0  0  0
  9 10  4  0  0  0  0
 10 11  1  0  0  0  0
 11 12  4  0  0  0  0
 12 13  4  0  0  0  0
 13 14  4  0  0  0  0
 14 15  1  0  0  0  0
 15 16  1  0  0  0  0
 15 17  1  0  0  0  0
 15 18  1  0  0  0  0
 14 19  4  0  0  0  0
 19 20  1  0  0  0  0
 19 21  4  0  0  0  0
 11 21  4  0  0  0  0
 10 22  4  0  0  0  0
  7 22  4  0  0  0  0
  3 23  1  0  0  0  0
 23 24  4  0  0  0  0
 24 25  4  0  0  0  0
 25 26  1  0  0  0  0
 26 27  1  0  0  0  0
 25 28  4  0  0  0  0
 28 29  4  0  0  0  0
 23 29  4  0  0  0  0
M  STY  1   1 DAT
M  SAL   1  1  22
M  SDT   1 MRV_IMPLICIT_H                                        
M  SDD   1     0.0000    0.0000    DR    ALL  0       0  
M  SED   1 IMPL_H1
M  END
>  <CdId>
419

>  <Mol Weight>
428.41

>  <Formula>
C18H16F4N4O2S

>  <Molecule ChEMBL ID>
CHEMBL4533529

>  <Molecule Max Phase>
None

>  <Molecular Weight>
428.41

>  <#RO5 Violations>
0

>  <AlogP>
3.22

>  <Compound Key>
55; NBD-14189

>  <Standard Type>
IC50

>  <Standard Relation>
'>'

>  <Standard Value>
25000.0

>  <Standard Units>
nM

$$$$

  Mrv2114 03112311372D          

 33 37  0  0  1  0            999 V2000
   -7.7553    3.2353    0.0000 C   0  0  0  0  0  0  0  0  0  0  0  0
   -7.2033    2.6222    0.0000 C   0  0  0  0  0  0  0  0  0  0  0  0
   -6.3828    2.7085    0.0000 C   0  0  0  0  0  0  0  0  0  0  0  0
   -6.0472    1.9548    0.0000 C   0  0  0  0  0  0  0  0  0  0  0  0
   -5.2403    1.7833    0.0000 C   0  0  0  0  0  0  0  0  0  0  0  0
   -4.6882    2.3964    0.0000 C   0  0  0  0  0  0  0  0  0  0  0  0
   -3.8813    2.2248    0.0000 C   0  0  0  0  0  0  0  0  0  0  0  0
   -3.6263    1.4402    0.0000 C   0  0  0  0  0  0  0  0  0  0  0  0
   -2.8194    1.2687    0.0000 C   0  0  0  0  0  0  0  0  0  0  0  0
   -2.5644    0.4841    0.0000 O   0  0  0  0  0  0  0  0  0  0  0  0
   -2.2673    1.8818    0.0000 C   0  0  2  0  0  0  0  0  0  0  0  0
   -2.5223    2.6664    0.0000 C   0  0  0  0  0  0  0  0  0  0  0  0
   -1.9702    3.2795    0.0000 C   0  0  0  0  0  0  0  0  0  0  0  0
   -1.1633    3.1080    0.0000 C   0  0  0  0  0  0  0  0  0  0  0  0
   -0.9083    2.3234    0.0000 C   0  0  0  0  0  0  0  0  0  0  0  0
   -1.4604    1.7103    0.0000 C   0  0  1  0  0  0  0  0  0  0  0  0
   -1.2054    0.9256    0.0000 C   0  0  0  0  0  0  0  0  0  0  0  0
   -1.7575    0.3126    0.0000 O   0  0  0  0  0  0  0  0  0  0  0  0
   -0.3984    0.7541    0.0000 N   0  0  0  0  0  0  0  0  0  0  0  0
   -0.1435   -0.0305    0.0000 C   0  0  0  0  0  0  0  0  0  0  0  0
   -0.6284   -0.6979    0.0000 C   0  0  0  0  0  0  0  0  0  0  0  0
   -0.1435   -1.3654    0.0000 N   0  0  0  0  0  0  0  0  0  0  0  0
    0.6411   -1.1104    0.0000 N   0  0  0  0  0  0  0  0  0  0  0  0
    0.6411   -0.2854    0.0000 C   0  0  0  0  0  0  0  0  0  0  0  0
    1.3556    0.1271    0.0000 C   0  0  0  0  0  0  0  0  0  0  0  0
    1.3556    0.9521    0.0000 O   0  0  0  0  0  0  0  0  0  0  0  0
    2.0701   -0.2854    0.0000 N   0  0  0  0  0  0  0  0  0  0  0  0
    2.0701   -1.1104    0.0000 C   0  0  0  0  0  0  0  0  0  0  0  0
    1.3556   -1.5229    0.0000 C   0  0  0  0  0  0  0  0  0  0  0  0
   -4.1784    0.8271    0.0000 C   0  0  0  0  0  0  0  0  0  0  0  0
   -4.9853    0.9987    0.0000 C   0  0  0  0  0  0  0  0  0  0  0  0
   -6.6603    1.4028    0.0000 N   0  0  0  0  0  0  0  0  0  0  0  0
   -7.3748    1.8153    0.0000 N   0  0  0  0  0  0  0  0  0  0  0  0
  1  2  1  0  0  0  0
  2  3  4  0  0  0  0
  3  4  4  0  0  0  0
  4  5  1  0  0  0  0
  5  6  4  0  0  0  0
  6  7  4  0  0  0  0
  7  8  4  0  0  0  0
  8  9  1  0  0  0  0
  9 10  2  0  0  0  0
 11  9  1  6  0  0  0
 11 12  1  0  0  0  0
 12 13  1  0  0  0  0
 13 14  1  0  0  0  0
 14 15  1  0  0  0  0
 16 15  1  0  0  0  0
 11 16  1  0  0  0  0
 16 17  1  1  0  0  0
 17 18  2  0  0  0  0
 17 19  1  0  0  0  0
 19 20  1  0  0  0  0
 20 21  4  0  0  0  0
 21 22  4  0  0  0  0
 22 23  4  0  0  0  0
 23 24  4  0  0  0  0
 20 24  4  0  0  0  0
 24 25  1  0  0  0  0
 25 26  2  0  0  0  0
 25 27  1  0  0  0  0
 27 28  1  0  0  0  0
 28 29  1  0  0  0  0
 23 29  1  0  0  0  0
  8 30  4  0  0  0  0
 30 31  4  0  0  0  0
  5 31  4  0  0  0  0
  4 32  4  0  0  0  0
 32 33  4  0  0  0  0
  2 33  4  0  0  0  0
M  STY  1   1 DAT
M  SAL   1  1  33
M  SDT   1 MRV_IMPLICIT_H                                        
M  SDD   1     0.0000    0.0000    DR    ALL  0       0  
M  SED   1 IMPL_H1
M  END
>  <CdId>
420

>  <Mol Weight>
446.511

>  <Formula>
C24H26N6O3

>  <Molecule ChEMBL ID>
CHEMBL4542281

>  <Molecule Max Phase>
None

>  <Molecular Weight>
446.51

>  <#RO5 Violations>
0

>  <AlogP>
2.95

>  <Compound Key>
12; AZD5718

>  <Standard Type>
IC50

>  <Standard Relation>
'>'

>  <Standard Value>
20000.0

>  <Standard Units>
nM

$$$$

  Mrv2114 03112311372D          

 23 25  0  0  0  0            999 V2000
   -3.5724   -2.8875    0.0000 C   0  0  0  0  0  0  0  0  0  0  0  0
   -2.8579   -2.4750    0.0000 C   0  0  0  0  0  0  0  0  0  0  0  0
   -2.1434   -2.8875    0.0000 N   0  0  0  0  0  0  0  0  0  0  0  0
   -1.4289   -2.4750    0.0000 C   0  0  0  0  0  0  0  0  0  0  0  0
   -0.7145   -2.8875    0.0000 C   0  0  0  0  0  0  0  0  0  0  0  0
    0.0000   -2.4750    0.0000 C   0  0  0  0  0  0  0  0  0  0  0  0
    0.7145   -2.8875    0.0000 C   0  0  0  0  0  0  0  0  0  0  0  0
    1.4289   -2.4750    0.0000 N   0  0  0  0  0  0  0  0  0  0  0  0
    1.4289   -1.6500    0.0000 C   0  0  0  0  0  0  0  0  0  0  0  0
    0.7145   -1.2375    0.0000 C   0  0  0  0  0  0  0  0  0  0  0  0
    0.7145   -0.4125    0.0000 C   0  0  0  0  0  0  0  0  0  0  0  0
    1.4289    0.0000    0.0000 N   0  0  0  0  0  0  0  0  0  0  0  0
    2.1434   -0.4125    0.0000 C   0  0  0  0  0  0  0  0  0  0  0  0
    2.8579    0.0000    0.0000 C   0  0  0  0  0  0  0  0  0  0  0  0
    3.5724   -0.4125    0.0000 C   0  0  0  0  0  0  0  0  0  0  0  0
    4.2868   -0.0000    0.0000 Cl  0  0  0  0  0  0  0  0  0  0  0  0
    3.5724   -1.2375    0.0000 C   0  0  0  0  0  0  0  0  0  0  0  0
    2.8579   -1.6500    0.0000 C   0  0  0  0  0  0  0  0  0  0  0  0
    2.1434   -1.2375    0.0000 C   0  0  0  0  0  0  0  0  0  0  0  0
    0.7145   -3.7125    0.0000 C   0  0  0  0  0  0  0  0  0  0  0  0
    0.0000   -4.1250    0.0000 C   0  0  0  0  0  0  0  0  0  0  0  0
   -0.7145   -3.7125    0.0000 C   0  0  0  0  0  0  0  0  0  0  0  0
   -1.4289   -4.1250    0.0000 O   0  0  0  0  0  0  0  0  0  0  0  0
  1  2  1  0  0  0  0
  2  3  1  0  0  0  0
  3  4  1  0  0  0  0
  4  5  1  0  0  0  0
  5  6  4  0  0  0  0
  6  7  4  0  0  0  0
  7  8  1  0  0  0  0
  8  9  1  0  0  0  0
  9 10  4  0  0  0  0
 10 11  4  0  0  0  0
 11 12  4  0  0  0  0
 12 13  4  0  0  0  0
 13 14  4  0  0  0  0
 14 15  4  0  0  0  0
 15 16  1  0  0  0  0
 15 17  4  0  0  0  0
 17 18  4  0  0  0  0
 18 19  4  0  0  0  0
  9 19  4  0  0  0  0
 13 19  4  0  0  0  0
  7 20  4  0  0  0  0
 20 21  4  0  0  0  0
 21 22  4  0  0  0  0
  5 22  4  0  0  0  0
 22 23  1  0  0  0  0
M  END
>  <CdId>
421

>  <Mol Weight>
327.81

>  <Formula>
C18H18ClN3O

>  <Molecule ChEMBL ID>
CHEMBL1235

>  <Molecule Name>
DESETHYL AMODIAQUINE

>  <Molecule Max Phase>
None

>  <Molecular Weight>
327.82

>  <#RO5 Violations>
0

>  <AlogP>
4.45

>  <Compound Key>
Desethyl amodiaquine

>  <Standard Type>
IC50

>  <Standard Relation>
'='

>  <Standard Value>
20000.0

>  <Standard Units>
nM

$$$$

  Mrv2114 03112311372D          

 40 45  0  0  1  0            999 V2000
    1.3184    2.0625    0.0000 C   0  0  0  0  0  0  0  0  0  0  0  0
    2.1434    2.0625    0.0000 C   0  0  0  0  0  0  0  0  0  0  0  0
    2.9684    2.0625    0.0000 C   0  0  0  0  0  0  0  0  0  0  0  0
    2.1434    2.8875    0.0000 C   0  0  0  0  0  0  0  0  0  0  0  0
    2.8579    3.3000    0.0000 O   0  0  0  0  0  0  0  0  0  0  0  0
    1.4289    3.3000    0.0000 N   0  0  0  0  0  0  0  0  0  0  0  0
    1.4289    4.1250    0.0000 C   0  0  0  0  0  0  0  0  0  0  0  0
    0.7615    4.6099    0.0000 N   0  0  0  0  0  0  0  0  0  0  0  0
    1.0164    5.3945    0.0000 N   0  0  0  0  0  0  0  0  0  0  0  0
    1.8414    5.3945    0.0000 C   0  0  0  0  0  0  0  0  0  0  0  0
    2.0964    4.6099    0.0000 S   0  0  0  0  0  0  0  0  0  0  0  0
    2.1434    1.2375    0.0000 C   0  0  2  0  0  0  0  0  0  0  0  0
    2.8579    0.8250    0.0000 C   0  0  0  0  0  0  0  0  0  0  0  0
    3.5724    1.2375    0.0000 C   0  0  0  0  0  0  0  0  0  0  0  0
    4.2868    0.8250    0.0000 C   0  0  0  0  0  0  0  0  0  0  0  0
    4.2868   -0.0000    0.0000 C   0  0  0  0  0  0  0  0  0  0  0  0
    5.0013   -0.4125    0.0000 C   0  0  0  0  0  0  0  0  0  0  0  0
    5.7158   -0.0000    0.0000 C   0  0  0  0  0  0  0  0  0  0  0  0
    6.4302   -0.4125    0.0000 C   0  0  0  0  0  0  0  0  0  0  0  0
    6.4302   -1.2375    0.0000 C   0  0  0  0  0  0  0  0  0  0  0  0
    7.1447   -1.6500    0.0000 C   0  0  0  0  0  0  0  0  0  0  0  0
    7.8592   -1.2375    0.0000 O   0  0  0  0  0  0  0  0  0  0  0  0
    7.1447   -2.4750    0.0000 N   0  0  0  0  0  0  0  0  0  0  0  0
    7.8592   -2.8875    0.0000 C   0  0  0  0  0  0  0  0  0  0  0  0
    7.8592   -3.7125    0.0000 C   0  0  0  0  0  0  0  0  0  0  0  0
    7.1447   -4.1250    0.0000 O   0  0  0  0  0  0  0  0  0  0  0  0
    6.4302   -3.7125    0.0000 C   0  0  0  0  0  0  0  0  0  0  0  0
    6.4302   -2.8875    0.0000 C   0  0  0  0  0  0  0  0  0  0  0  0
    5.7158   -1.6500    0.0000 C   0  0  0  0  0  0  0  0  0  0  0  0
    5.0013   -1.2375    0.0000 C   0  0  0  0  0  0  0  0  0  0  0  0
    3.5724   -0.4125    0.0000 N   0  0  0  0  0  0  0  0  0  0  0  0
    2.8579    0.0000    0.0000 C   0  0  0  0  0  0  0  0  0  0  0  0
    2.1434   -0.4125    0.0000 O   0  0  0  0  0  0  0  0  0  0  0  0
    1.4289    0.0000    0.0000 C   0  0  0  0  0  0  0  0  0  0  0  0
    0.7145   -0.4125    0.0000 C   0  0  0  0  0  0  0  0  0  0  0  0
    0.7145   -1.2375    0.0000 F   0  0  0  0  0  0  0  0  0  0  0  0
    0.0000    0.0000    0.0000 C   0  0  0  0  0  0  0  0  0  0  0  0
    0.0000    0.8250    0.0000 C   0  0  0  0  0  0  0  0  0  0  0  0
    0.7145    1.2375    0.0000 C   0  0  0  0  0  0  0  0  0  0  0  0
    1.4289    0.8250    0.0000 C   0  0  0  0  0  0  0  0  0  0  0  0
  1  2  1  0  0  0  0
  2  3  1  0  0  0  0
  2  4  1  0  0  0  0
  4  5  2  0  0  0  0
  4  6  1  0  0  0  0
  6  7  1  0  0  0  0
  7  8  4  0  0  0  0
  8  9  4  0  0  0  0
  9 10  4  0  0  0  0
 10 11  4  0  0  0  0
  7 11  4  0  0  0  0
 12  2  1  6  0  0  0
 12 13  1  0  0  0  0
 13 14  4  0  0  0  0
 14 15  4  0  0  0  0
 15 16  4  0  0  0  0
 16 17  1  0  0  0  0
 17 18  4  0  0  0  0
 18 19  4  0  0  0  0
 19 20  4  0  0  0  0
 20 21  1  0  0  0  0
 21 22  2  0  0  0  0
 21 23  1  0  0  0  0
 23 24  1  0  0  0  0
 24 25  1  0  0  0  0
 25 26  1  0  0  0  0
 26 27  1  0  0  0  0
 27 28  1  0  0  0  0
 23 28  1  0  0  0  0
 20 29  4  0  0  0  0
 29 30  4  0  0  0  0
 17 30  4  0  0  0  0
 16 31  4  0  0  0  0
 31 32  4  0  0  0  0
 13 32  4  0  0  0  0
 32 33  1  0  0  0  0
 33 34  1  0  0  0  0
 34 35  4  0  0  0  0
 35 36  1  0  0  0  0
 35 37  4  0  0  0  0
 37 38  4  0  0  0  0
 38 39  4  0  0  0  0
 39 40  4  0  0  0  0
 34 40  4  0  0  0  0
 12 40  1  0  0  0  0
M  END
>  <CdId>
422

>  <Mol Weight>
559.62

>  <Formula>
C29H26FN5O4S

>  <Molecule ChEMBL ID>
CHEMBL3315062

>  <Molecule Max Phase>
None

>  <Molecular Weight>
559.62

>  <#RO5 Violations>
2

>  <AlogP>
5.11

>  <Compound Key>
27

>  <Standard Type>
IC50

>  <Standard Relation>
'='

>  <Standard Value>
3000.0

>  <Standard Units>
nM

$$$$

  Mrv2114 03112311372D          

 29 31  0  0  0  0            999 V2000
    2.5399   -3.9893    0.0000 C   0  0  0  0  0  0  0  0  0  0  0  0
    1.7329   -4.1608    0.0000 C   0  0  0  0  0  0  0  0  0  0  0  0
    1.4780   -4.9454    0.0000 C   0  0  0  0  0  0  0  0  0  0  0  0
    2.0300   -5.5585    0.0000 C   0  0  0  0  0  0  0  0  0  0  0  0
    1.7751   -6.3432    0.0000 O   0  0  0  0  0  0  0  0  0  0  0  0
    2.8370   -5.3870    0.0000 O   0  0  0  0  0  0  0  0  0  0  0  0
    1.1809   -3.5477    0.0000 C   0  0  0  0  0  0  0  0  0  0  0  0
    0.3739   -3.7192    0.0000 C   0  0  0  0  0  0  0  0  0  0  0  0
   -0.1781   -3.1062    0.0000 C   0  0  0  0  0  0  0  0  0  0  0  0
    0.0768   -2.3215    0.0000 C   0  0  0  0  0  0  0  0  0  0  0  0
    0.8838   -2.1500    0.0000 C   0  0  0  0  0  0  0  0  0  0  0  0
    1.1387   -1.3654    0.0000 N   0  0  0  0  0  0  0  0  0  0  0  0
    0.6538   -0.6979    0.0000 C   0  0  0  0  0  0  0  0  0  0  0  0
   -0.1712   -0.6979    0.0000 C   0  0  0  0  0  0  0  0  0  0  0  0
   -0.5837    0.0165    0.0000 N   0  0  0  0  0  0  0  0  0  0  0  0
   -0.5837   -1.4124    0.0000 O   0  0  0  0  0  0  0  0  0  0  0  0
    1.1387   -0.0305    0.0000 C   0  0  0  0  0  0  0  0  0  0  0  0
    1.9233   -0.2854    0.0000 C   0  0  0  0  0  0  0  0  0  0  0  0
    2.6378    0.1271    0.0000 C   0  0  0  0  0  0  0  0  0  0  0  0
    3.3523   -0.2854    0.0000 C   0  0  0  0  0  0  0  0  0  0  0  0
    3.3523   -1.1104    0.0000 C   0  0  0  0  0  0  0  0  0  0  0  0
    4.0668   -1.5229    0.0000 O   0  0  0  0  0  0  0  0  0  0  0  0
    4.7812   -1.1104    0.0000 C   0  0  0  0  0  0  0  0  0  0  0  0
    5.4957   -0.6979    0.0000 F   0  0  0  0  0  0  0  0  0  0  0  0
    5.1937   -1.8249    0.0000 F   0  0  0  0  0  0  0  0  0  0  0  0
    4.3687   -0.3960    0.0000 F   0  0  0  0  0  0  0  0  0  0  0  0
    2.6378   -1.5229    0.0000 C   0  0  0  0  0  0  0  0  0  0  0  0
    1.9233   -1.1104    0.0000 C   0  0  0  0  0  0  0  0  0  0  0  0
    1.4358   -2.7631    0.0000 N   0  0  0  0  0  0  0  0  0  0  0  0
  1  2  1  0  0  0  0
  2  3  1  0  0  0  0
  3  4  1  0  0  0  0
  4  5  2  0  0  0  0
  4  6  1  0  0  0  0
  2  7  1  0  0  0  0
  7  8  4  0  0  0  0
  8  9  4  0  0  0  0
  9 10  4  0  0  0  0
 10 11  4  0  0  0  0
 11 12  1  0  0  0  0
 12 13  4  0  0  0  0
 13 14  1  0  0  0  0
 14 15  1  0  0  0  0
 14 16  2  0  0  0  0
 13 17  4  0  0  0  0
 17 18  4  0  0  0  0
 18 19  4  0  0  0  0
 19 20  4  0  0  0  0
 20 21  4  0  0  0  0
 21 22  1  0  0  0  0
 22 23  1  0  0  0  0
 23 24  1  0  0  0  0
 23 25  1  0  0  0  0
 23 26  1  0  0  0  0
 21 27  4  0  0  0  0
 27 28  4  0  0  0  0
 18 28  4  0  0  0  0
 12 28  4  0  0  0  0
 11 29  4  0  0  0  0
  7 29  4  0  0  0  0
M  END
>  <CdId>
423

>  <Mol Weight>
407.349

>  <Formula>
C19H16F3N3O4

>  <Molecule ChEMBL ID>
CHEMBL4215835

>  <Molecule Max Phase>
None

>  <Molecular Weight>
407.35

>  <#RO5 Violations>
0

>  <AlogP>
3.6

>  <Compound Key>
(-)-17

>  <Standard Type>
IC50

>  <Standard Relation>
'>'

>  <Standard Value>
20000.0

>  <Standard Units>
nM

$$$$

  Mrv2114 03112311372D          

 26 28  0  0  0  0            999 V2000
    2.8579    0.0000    0.0000 C   0  0  0  0  0  0  0  0  0  0  0  0
    3.5724    0.4125    0.0000 C   0  0  0  0  0  0  0  0  0  0  0  0
    4.2868    0.0000    0.0000 C   0  0  0  0  0  0  0  0  0  0  0  0
    5.0013    0.4125    0.0000 C   0  0  0  0  0  0  0  0  0  0  0  0
    5.7158    0.0000    0.0000 N   0  0  0  0  0  0  0  0  0  0  0  0
    6.4302    0.4125    0.0000 C   0  0  0  0  0  0  0  0  0  0  0  0
    6.4302    1.2375    0.0000 N   0  0  0  0  0  0  0  0  0  0  0  0
    7.1447    1.6500    0.0000 C   0  0  0  0  0  0  0  0  0  0  0  0
    7.1447    2.4750    0.0000 N   0  0  0  0  0  0  0  0  0  0  0  0
    7.8592    1.2375    0.0000 N   0  0  0  0  0  0  0  0  0  0  0  0
    7.8592    0.4125    0.0000 C   0  0  0  0  0  0  0  0  0  0  0  0
    8.5737    0.0000    0.0000 C   0  0  0  0  0  0  0  0  0  0  0  0
    8.5737   -0.8250    0.0000 C   0  0  0  0  0  0  0  0  0  0  0  0
    7.8592   -1.2375    0.0000 C   0  0  0  0  0  0  0  0  0  0  0  0
    7.1447   -0.8250    0.0000 C   0  0  0  0  0  0  0  0  0  0  0  0
    6.4302   -1.2375    0.0000 O   0  0  0  0  0  0  0  0  0  0  0  0
    6.4302   -2.0625    0.0000 C   0  0  0  0  0  0  0  0  0  0  0  0
    7.1447   -2.4750    0.0000 C   0  0  0  0  0  0  0  0  0  0  0  0
    7.8592   -2.0625    0.0000 C   0  0  0  0  0  0  0  0  0  0  0  0
    8.5737   -2.4750    0.0000 C   0  0  0  0  0  0  0  0  0  0  0  0
    8.5737   -3.3000    0.0000 C   0  0  0  0  0  0  0  0  0  0  0  0
    7.8592   -3.7125    0.0000 C   0  0  0  0  0  0  0  0  0  0  0  0
    7.1447   -3.3000    0.0000 C   0  0  0  0  0  0  0  0  0  0  0  0
    6.4302   -3.7125    0.0000 O   0  0  0  0  0  0  0  0  0  0  0  0
    5.7158   -3.3000    0.0000 C   0  0  0  0  0  0  0  0  0  0  0  0
    7.1447    0.0000    0.0000 C   0  0  0  0  0  0  0  0  0  0  0  0
  1  2  1  0  0  0  0
  2  3  1  0  0  0  0
  3  4  1  0  0  0  0
  4  5  1  0  0  0  0
  5  6  1  0  0  0  0
  6  7  4  0  0  0  0
  7  8  4  0  0  0  0
  8  9  1  0  0  0  0
  8 10  4  0  0  0  0
 10 11  4  0  0  0  0
 11 12  4  0  0  0  0
 12 13  4  0  0  0  0
 13 14  4  0  0  0  0
 14 15  4  0  0  0  0
 15 16  1  0  0  0  0
 16 17  1  0  0  0  0
 17 18  1  0  0  0  0
 18 19  4  0  0  0  0
 19 20  4  0  0  0  0
 20 21  4  0  0  0  0
 21 22  4  0  0  0  0
 22 23  4  0  0  0  0
 18 23  4  0  0  0  0
 23 24  1  0  0  0  0
 24 25  1  0  0  0  0
 15 26  4  0  0  0  0
  6 26  4  0  0  0  0
 11 26  4  0  0  0  0
M  END
>  <CdId>
424

>  <Mol Weight>
352.438

>  <Formula>
C20H24N4O2

>  <Molecule ChEMBL ID>
CHEMBL4208231

>  <Molecule Max Phase>
None

>  <Molecular Weight>
352.44

>  <#RO5 Violations>
0

>  <AlogP>
4.01

>  <Compound Key>
37

>  <Standard Type>
IC50

>  <Standard Relation>
'>'

>  <Standard Value>
10000.0

>  <Standard Units>
nM

$$$$

  Mrv2114 03112311372D          

 29 33  0  0  1  0            999 V2000
   -4.2962   -3.5558    0.0000 C   0  0  0  0  0  0  0  0  0  0  0  0
   -3.8837   -2.8414    0.0000 O   0  0  0  0  0  0  0  0  0  0  0  0
   -3.0587   -2.8414    0.0000 C   0  0  0  0  0  0  0  0  0  0  0  0
   -2.6462   -2.1269    0.0000 N   0  0  0  0  0  0  0  0  0  0  0  0
   -1.8212   -2.1269    0.0000 C   0  0  0  0  0  0  0  0  0  0  0  0
   -1.4087   -1.4124    0.0000 C   0  0  0  0  0  0  0  0  0  0  0  0
   -1.8212   -0.6979    0.0000 N   0  0  0  0  0  0  0  0  0  0  0  0
   -1.4087    0.0165    0.0000 O   0  0  0  0  0  0  0  0  0  0  0  0
   -0.5837    0.0165    0.0000 C   0  0  0  0  0  0  0  0  0  0  0  0
   -0.1712   -0.6979    0.0000 C   0  0  2  0  0  0  0  0  0  0  0  0
    0.6538   -0.6979    0.0000 C   0  0  0  0  0  0  0  0  0  0  0  0
    1.1387   -0.0305    0.0000 C   0  0  0  0  0  0  0  0  0  0  0  0
    1.9233   -0.2854    0.0000 C   0  0  0  0  0  0  0  0  0  0  0  0
    2.6378    0.1271    0.0000 C   0  0  0  0  0  0  0  0  0  0  0  0
    3.3523   -0.2854    0.0000 C   0  0  0  0  0  0  0  0  0  0  0  0
    3.3523   -1.1104    0.0000 C   0  0  0  0  0  0  0  0  0  0  0  0
    2.6378   -1.5229    0.0000 C   0  0  0  0  0  0  0  0  0  0  0  0
    1.9233   -1.1104    0.0000 C   0  0  0  0  0  0  0  0  0  0  0  0
    1.1387   -1.3654    0.0000 O   0  0  0  0  0  0  0  0  0  0  0  0
   -0.5837   -1.4124    0.0000 N   0  0  0  0  0  0  0  0  0  0  0  0
   -1.4087   -2.8414    0.0000 C   0  0  0  0  0  0  0  0  0  0  0  0
   -1.8212   -3.5558    0.0000 C   0  0  0  0  0  0  0  0  0  0  0  0
   -2.6462   -3.5558    0.0000 C   0  0  0  0  0  0  0  0  0  0  0  0
   -3.0587   -4.2703    0.0000 N   0  0  0  0  0  0  0  0  0  0  0  0
   -2.7231   -5.0240    0.0000 C   0  0  0  0  0  0  0  0  0  0  0  0
   -3.3362   -5.5760    0.0000 N   0  0  0  0  0  0  0  0  0  0  0  0
   -4.0507   -5.1635    0.0000 C   0  0  0  0  0  0  0  0  0  0  0  0
   -4.8044   -5.4991    0.0000 C   0  0  0  0  0  0  0  0  0  0  0  0
   -3.8792   -4.3565    0.0000 C   0  0  0  0  0  0  0  0  0  0  0  0
  1  2  1  0  0  0  0
  2  3  1  0  0  0  0
  3  4  4  0  0  0  0
  4  5  4  0  0  0  0
  5  6  1  0  0  0  0
  6  7  2  0  0  0  0
  7  8  1  0  0  0  0
  8  9  1  0  0  0  0
 10  9  1  0  0  0  0
 10 11  1  6  0  0  0
 11 12  4  0  0  0  0
 12 13  4  0  0  0  0
 13 14  4  0  0  0  0
 14 15  4  0  0  0  0
 15 16  4  0  0  0  0
 16 17  4  0  0  0  0
 17 18  4  0  0  0  0
 13 18  4  0  0  0  0
 18 19  4  0  0  0  0
 11 19  4  0  0  0  0
 10 20  1  0  0  0  0
  6 20  1  0  0  0  0
  5 21  4  0  0  0  0
 21 22  4  0  0  0  0
 22 23  4  0  0  0  0
  3 23  4  0  0  0  0
 23 24  1  0  0  0  0
 24 25  4  0  0  0  0
 25 26  4  0  0  0  0
 26 27  4  0  0  0  0
 27 28  1  0  0  0  0
 27 29  4  0  0  0  0
 24 29  4  0  0  0  0
M  END
>  <CdId>
425

>  <Mol Weight>
389.415

>  <Formula>
C21H19N5O3

>  <Molecule ChEMBL ID>
CHEMBL4101809

>  <Molecule Max Phase>
None

>  <Molecular Weight>
389.42

>  <#RO5 Violations>
0

>  <AlogP>
3.35

>  <Compound Key>
47

>  <Standard Type>
IC50

>  <Standard Relation>
'>'

>  <Standard Value>
25000.0

>  <Standard Units>
nM

$$$$

  Mrv2114 03112311372D          

 32 35  0  0  0  0            999 V2000
    2.7512    0.7634    0.0000 C   0  0  0  0  0  0  0  0  0  0  0  0
    2.7512   -0.0616    0.0000 C   0  0  0  0  0  0  0  0  0  0  0  0
    3.4656   -0.4741    0.0000 C   0  0  0  0  0  0  0  0  0  0  0  0
    3.4656   -1.2991    0.0000 C   0  0  0  0  0  0  0  0  0  0  0  0
    2.7512   -1.7116    0.0000 C   0  0  0  0  0  0  0  0  0  0  0  0
    2.7512   -2.5366    0.0000 N   0  0  0  0  0  0  0  0  0  0  0  0
    2.0837   -3.0215    0.0000 N   0  0  0  0  0  0  0  0  0  0  0  0
    2.3387   -3.8062    0.0000 C   0  0  0  0  0  0  0  0  0  0  0  0
    1.8538   -4.4736    0.0000 C   0  0  0  0  0  0  0  0  0  0  0  0
    1.3688   -5.1410    0.0000 C   0  0  0  0  0  0  0  0  0  0  0  0
    1.1863   -3.9887    0.0000 C   0  0  0  0  0  0  0  0  0  0  0  0
    2.5212   -4.9585    0.0000 C   0  0  0  0  0  0  0  0  0  0  0  0
    3.1637   -3.8062    0.0000 C   0  0  0  0  0  0  0  0  0  0  0  0
    3.4186   -3.0215    0.0000 C   0  0  0  0  0  0  0  0  0  0  0  0
    4.2032   -2.7666    0.0000 N   0  0  0  0  0  0  0  0  0  0  0  0
    4.8163   -3.3186    0.0000 C   0  0  0  0  0  0  0  0  0  0  0  0
    4.6448   -4.1256    0.0000 O   0  0  0  0  0  0  0  0  0  0  0  0
    5.6010   -3.0637    0.0000 N   0  0  0  0  0  0  0  0  0  0  0  0
    6.2140   -3.6157    0.0000 C   0  0  0  0  0  0  0  0  0  0  0  0
    6.9987   -3.3608    0.0000 C   0  0  0  0  0  0  0  0  0  0  0  0
    7.6118   -3.9128    0.0000 C   0  0  0  0  0  0  0  0  0  0  0  0
    7.4402   -4.7198    0.0000 C   0  0  0  0  0  0  0  0  0  0  0  0
    8.0533   -5.2718    0.0000 N   0  0  0  0  0  0  0  0  0  0  0  0
    8.8603   -5.1003    0.0000 N   0  0  0  0  0  0  0  0  0  0  0  0
    9.2728   -5.8148    0.0000 N   0  0  0  0  0  0  0  0  0  0  0  0
    8.7208   -6.4279    0.0000 N   0  0  0  0  0  0  0  0  0  0  0  0
    7.9671   -6.0923    0.0000 C   0  0  0  0  0  0  0  0  0  0  0  0
    7.2526   -6.5048    0.0000 C   0  0  0  0  0  0  0  0  0  0  0  0
    6.6556   -4.9747    0.0000 C   0  0  0  0  0  0  0  0  0  0  0  0
    6.0425   -4.4227    0.0000 C   0  0  0  0  0  0  0  0  0  0  0  0
    2.0367   -1.2991    0.0000 C   0  0  0  0  0  0  0  0  0  0  0  0
    2.0367   -0.4741    0.0000 C   0  0  0  0  0  0  0  0  0  0  0  0
  1  2  1  0  0  0  0
  2  3  4  0  0  0  0
  3  4  4  0  0  0  0
  4  5  4  0  0  0  0
  5  6  1  0  0  0  0
  6  7  4  0  0  0  0
  7  8  4  0  0  0  0
  8  9  1  0  0  0  0
  9 10  1  0  0  0  0
  9 11  1  0  0  0  0
  9 12  1  0  0  0  0
  8 13  4  0  0  0  0
 13 14  4  0  0  0  0
  6 14  4  0  0  0  0
 14 15  1  0  0  0  0
 15 16  1  0  0  0  0
 16 17  2  0  0  0  0
 16 18  1  0  0  0  0
 18 19  1  0  0  0  0
 19 20  4  0  0  0  0
 20 21  4  0  0  0  0
 21 22  4  0  0  0  0
 22 23  1  0  0  0  0
 23 24  4  0  0  0  0
 24 25  4  0  0  0  0
 25 26  4  0  0  0  0
 26 27  4  0  0  0  0
 23 27  4  0  0  0  0
 27 28  1  0  0  0  0
 22 29  4  0  0  0  0
 29 30  4  0  0  0  0
 19 30  4  0  0  0  0
  5 31  4  0  0  0  0
 31 32  4  0  0  0  0
  2 32  4  0  0  0  0
M  END
>  <CdId>
426

>  <Mol Weight>
430.516

>  <Formula>
C23H26N8O

>  <Molecule ChEMBL ID>
CHEMBL2425152

>  <Molecule Max Phase>
None

>  <Molecular Weight>
430.52

>  <#RO5 Violations>
0

>  <AlogP>
4.41

>  <Compound Key>
23

>  <Standard Type>
IC50

>  <Standard Relation>
'>'

>  <Standard Value>
10000.0

>  <Standard Units>
nM

$$$$

  Mrv2114 03112311372D          

 36 40  0  0  0  0            999 V2000
   -2.2181   -8.6639    0.0000 C   0  0  0  0  0  0  0  0  0  0  0  0
   -1.4645   -8.3283    0.0000 C   0  0  0  0  0  0  0  0  0  0  0  0
   -1.3782   -7.5078    0.0000 C   0  0  0  0  0  0  0  0  0  0  0  0
   -0.6245   -7.1723    0.0000 C   0  0  0  0  0  0  0  0  0  0  0  0
    0.0429   -7.6572    0.0000 C   0  0  0  0  0  0  0  0  0  0  0  0
    0.7966   -7.3217    0.0000 N   0  0  0  0  0  0  0  0  0  0  0  0
    1.5110   -7.7342    0.0000 N   0  0  0  0  0  0  0  0  0  0  0  0
    2.1241   -7.1821    0.0000 C   0  0  0  0  0  0  0  0  0  0  0  0
    2.9311   -7.3536    0.0000 C   0  0  0  0  0  0  0  0  0  0  0  0
    3.7381   -7.5252    0.0000 C   0  0  0  0  0  0  0  0  0  0  0  0
    2.7596   -8.1606    0.0000 C   0  0  0  0  0  0  0  0  0  0  0  0
    3.1026   -6.5467    0.0000 C   0  0  0  0  0  0  0  0  0  0  0  0
    1.7886   -6.4284    0.0000 C   0  0  0  0  0  0  0  0  0  0  0  0
    0.9681   -6.5147    0.0000 C   0  0  0  0  0  0  0  0  0  0  0  0
    0.4161   -5.9016    0.0000 N   0  0  0  0  0  0  0  0  0  0  0  0
    0.6710   -5.1170    0.0000 C   0  0  0  0  0  0  0  0  0  0  0  0
    1.4780   -4.9454    0.0000 O   0  0  0  0  0  0  0  0  0  0  0  0
    0.1190   -4.5039    0.0000 N   0  0  0  0  0  0  0  0  0  0  0  0
    0.3739   -3.7192    0.0000 C   0  0  0  0  0  0  0  0  0  0  0  0
   -0.1781   -3.1062    0.0000 C   0  0  0  0  0  0  0  0  0  0  0  0
    0.0768   -2.3215    0.0000 C   0  0  0  0  0  0  0  0  0  0  0  0
    0.8838   -2.1500    0.0000 C   0  0  0  0  0  0  0  0  0  0  0  0
    1.1387   -1.3654    0.0000 N   0  0  0  0  0  0  0  0  0  0  0  0
    0.6538   -0.6979    0.0000 C   0  0  0  0  0  0  0  0  0  0  0  0
    1.1387   -0.0305    0.0000 N   0  0  0  0  0  0  0  0  0  0  0  0
    1.9233   -0.2854    0.0000 C   0  0  0  0  0  0  0  0  0  0  0  0
    2.6378    0.1271    0.0000 C   0  0  0  0  0  0  0  0  0  0  0  0
    2.6378    0.9521    0.0000 N   0  0  0  0  0  0  0  0  0  0  0  0
    3.3523   -0.2854    0.0000 N   0  0  0  0  0  0  0  0  0  0  0  0
    3.3523   -1.1104    0.0000 C   0  0  0  0  0  0  0  0  0  0  0  0
    2.6378   -1.5229    0.0000 N   0  0  0  0  0  0  0  0  0  0  0  0
    1.9233   -1.1104    0.0000 C   0  0  0  0  0  0  0  0  0  0  0  0
    1.4358   -2.7631    0.0000 C   0  0  0  0  0  0  0  0  0  0  0  0
    1.1809   -3.5477    0.0000 C   0  0  0  0  0  0  0  0  0  0  0  0
   -0.0433   -8.4777    0.0000 C   0  0  0  0  0  0  0  0  0  0  0  0
   -0.7970   -8.8132    0.0000 C   0  0  0  0  0  0  0  0  0  0  0  0
  1  2  1  0  0  0  0
  2  3  4  0  0  0  0
  3  4  4  0  0  0  0
  4  5  4  0  0  0  0
  5  6  1  0  0  0  0
  6  7  4  0  0  0  0
  7  8  4  0  0  0  0
  8  9  1  0  0  0  0
  9 10  1  0  0  0  0
  9 11  1  0  0  0  0
  9 12  1  0  0  0  0
  8 13  4  0  0  0  0
 13 14  4  0  0  0  0
  6 14  4  0  0  0  0
 14 15  1  0  0  0  0
 15 16  1  0  0  0  0
 16 17  2  0  0  0  0
 16 18  1  0  0  0  0
 18 19  1  0  0  0  0
 19 20  4  0  0  0  0
 20 21  4  0  0  0  0
 21 22  4  0  0  0  0
 22 23  1  0  0  0  0
 23 24  4  0  0  0  0
 24 25  4  0  0  0  0
 25 26  4  0  0  0  0
 26 27  4  0  0  0  0
 27 28  1  0  0  0  0
 27 29  4  0  0  0  0
 29 30  4  0  0  0  0
 30 31  4  0  0  0  0
 31 32  4  0  0  0  0
 26 32  4  0  0  0  0
 23 32  4  0  0  0  0
 22 33  4  0  0  0  0
 33 34  4  0  0  0  0
 19 34  4  0  0  0  0
  5 35  4  0  0  0  0
 35 36  4  0  0  0  0
  2 36  4  0  0  0  0
M  END
>  <CdId>
427

>  <Mol Weight>
481.564

>  <Formula>
C26H27N9O

>  <Molecule ChEMBL ID>
CHEMBL2425144

>  <Molecule Max Phase>
None

>  <Molecular Weight>
481.56

>  <#RO5 Violations>
0

>  <AlogP>
4.83

>  <Compound Key>
13

>  <Standard Type>
IC50

>  <Standard Relation>
'>'

>  <Standard Value>
10000.0

>  <Standard Units>
nM

$$$$

  Mrv2114 03112311372D          

 33 37  0  0  1  0            999 V2000
    1.4358   -2.7631    0.0000 O   0  0  0  0  0  0  0  0  0  0  0  0
    0.8838   -2.1500    0.0000 C   0  0  0  0  0  0  0  0  0  0  0  0
    0.0768   -2.3215    0.0000 N   0  0  0  0  0  0  0  0  0  0  0  0
   -0.1781   -3.1062    0.0000 C   0  0  0  0  0  0  0  0  0  0  0  0
    0.3739   -3.7192    0.0000 C   0  0  0  0  0  0  0  0  0  0  0  0
    0.1190   -4.5039    0.0000 C   0  0  0  0  0  0  0  0  0  0  0  0
   -0.6880   -4.6754    0.0000 C   0  0  0  0  0  0  0  0  0  0  0  0
   -0.9429   -5.4600    0.0000 C   0  0  0  0  0  0  0  0  0  0  0  0
   -1.7499   -5.6315    0.0000 C   0  0  2  0  0  0  0  0  0  0  0  0
   -2.0855   -6.3852    0.0000 C   0  0  0  0  0  0  0  0  0  0  0  0
   -2.9060   -6.2990    0.0000 C   0  0  0  0  0  0  0  0  0  0  0  0
   -3.0775   -5.4920    0.0000 C   0  0  2  0  0  0  0  0  0  0  0  0
   -3.8312   -5.1565    0.0000 C   0  0  2  0  0  0  0  0  0  0  0  0
   -3.9174   -4.3360    0.0000 O   0  0  0  0  0  0  0  0  0  0  0  0
   -4.4986   -5.6414    0.0000 C   0  0  0  0  0  0  0  0  0  0  0  0
   -4.4124   -6.4619    0.0000 C   0  0  0  0  0  0  0  0  0  0  0  0
   -5.0798   -6.9468    0.0000 C   0  0  0  0  0  0  0  0  0  0  0  0
   -5.8335   -6.6112    0.0000 C   0  0  0  0  0  0  0  0  0  0  0  0
   -5.9197   -5.7907    0.0000 C   0  0  0  0  0  0  0  0  0  0  0  0
   -5.2523   -5.3058    0.0000 C   0  0  0  0  0  0  0  0  0  0  0  0
   -2.3630   -5.0795    0.0000 N   0  0  0  0  0  0  0  0  0  0  0  0
   -1.2400   -4.0623    0.0000 C   0  0  0  0  0  0  0  0  0  0  0  0
   -0.9851   -3.2777    0.0000 C   0  0  0  0  0  0  0  0  0  0  0  0
    1.1387   -1.3654    0.0000 C   0  0  2  0  0  0  0  0  0  0  0  0
    0.6538   -0.6979    0.0000 C   0  0  0  0  0  0  0  0  0  0  0  0
    1.1387   -0.0305    0.0000 C   0  0  0  0  0  0  0  0  0  0  0  0
    1.9233   -0.2854    0.0000 C   0  0  0  0  0  0  0  0  0  0  0  0
    2.6378    0.1271    0.0000 N   0  0  0  0  0  0  0  0  0  0  0  0
    3.3523   -0.2854    0.0000 C   0  0  0  0  0  0  0  0  0  0  0  0
    3.3523   -1.1104    0.0000 C   0  0  0  0  0  0  0  0  0  0  0  0
    2.6378   -1.5229    0.0000 C   0  0  0  0  0  0  0  0  0  0  0  0
    2.6378   -2.3479    0.0000 O   0  0  0  0  0  0  0  0  0  0  0  0
    1.9233   -1.1104    0.0000 N   0  0  0  0  0  0  0  0  0  0  0  0
  1  2  2  0  0  0  0
  2  3  1  0  0  0  0
  3  4  1  0  0  0  0
  4  5  4  0  0  0  0
  5  6  4  0  0  0  0
  6  7  4  0  0  0  0
  7  8  1  0  0  0  0
  9  8  1  6  0  0  0
  9 10  1  0  0  0  0
 10 11  1  0  0  0  0
 12 11  1  0  0  0  0
 12 13  1  6  0  0  0
 13 14  1  1  0  0  0
 13 15  1  0  0  0  0
 15 16  4  0  0  0  0
 16 17  4  0  0  0  0
 17 18  4  0  0  0  0
 18 19  4  0  0  0  0
 19 20  4  0  0  0  0
 15 20  4  0  0  0  0
 12 21  1  0  0  0  0
  9 21  1  0  0  0  0
  7 22  4  0  0  0  0
 22 23  4  0  0  0  0
  4 23  4  0  0  0  0
 24  2  1  6  0  0  0
 24 25  1  0  0  0  0
 25 26  1  0  0  0  0
 26 27  1  0  0  0  0
 27 28  4  0  0  0  0
 28 29  4  0  0  0  0
 29 30  4  0  0  0  0
 30 31  4  0  0  0  0
 31 32  2  0  0  0  0
 31 33  4  0  0  0  0
 27 33  4  0  0  0  0
 24 33  1  0  0  0  0
M  END
>  <CdId>
428

>  <Mol Weight>
444.535

>  <Formula>
C26H28N4O3

>  <Molecule ChEMBL ID>
CHEMBL2107826

>  <Molecule Name>
VIBEGRON

>  <Molecule Max Phase>
4

>  <Molecular Weight>
444.54

>  <#RO5 Violations>
0

>  <AlogP>
2.77

>  <Compound Key>
7; vibegron; MK-4618

>  <Standard Type>
IC50

>  <Standard Relation>
'>'

>  <Standard Value>
100000.0

>  <Standard Units>
nM

$$$$

  Mrv2114 03112311372D          

 33 36  0  0  1  0            999 V2000
    4.7812    2.7604    0.0000 C   0  0  0  0  0  0  0  0  0  0  0  0
    4.0668    2.3479    0.0000 S   0  0  0  0  0  0  0  0  0  0  0  0
    3.6543    3.0624    0.0000 O   0  0  0  0  0  0  0  0  0  0  0  0
    4.4793    1.6335    0.0000 O   0  0  0  0  0  0  0  0  0  0  0  0
    3.3523    1.9354    0.0000 N   0  0  0  0  0  0  0  0  0  0  0  0
    3.3523    1.1104    0.0000 C   0  0  0  0  0  0  0  0  0  0  0  0
    4.0668    0.6979    0.0000 O   0  0  0  0  0  0  0  0  0  0  0  0
    2.6378    0.6979    0.0000 N   0  0  0  0  0  0  0  0  0  0  0  0
    2.6378   -0.1271    0.0000 C   0  0  0  0  0  0  0  0  0  0  0  0
    3.3523   -0.5396    0.0000 C   0  0  0  0  0  0  0  0  0  0  0  0
    3.3523   -1.3646    0.0000 C   0  0  0  0  0  0  0  0  0  0  0  0
    2.6378   -1.7771    0.0000 C   0  0  0  0  0  0  0  0  0  0  0  0
    1.9233   -1.3646    0.0000 C   0  0  0  0  0  0  0  0  0  0  0  0
    1.2089   -1.7771    0.0000 C   0  0  0  0  0  0  0  0  0  0  0  0
    0.4944   -2.1896    0.0000 F   0  0  0  0  0  0  0  0  0  0  0  0
    1.6214   -2.4915    0.0000 F   0  0  0  0  0  0  0  0  0  0  0  0
    0.7964   -1.0626    0.0000 F   0  0  0  0  0  0  0  0  0  0  0  0
    1.9233   -0.5396    0.0000 C   0  0  0  0  0  0  0  0  0  0  0  0
    1.9233    1.1104    0.0000 C   0  0  0  0  0  0  0  0  0  0  0  0
    1.9233    1.9354    0.0000 C   0  0  0  0  0  0  0  0  0  0  0  0
    1.1387    2.1904    0.0000 C   0  0  0  0  0  0  0  0  0  0  0  0
    0.8838    2.9750    0.0000 O   0  0  0  0  0  0  0  0  0  0  0  0
    0.6538    1.5229    0.0000 C   0  0  0  0  0  0  0  0  0  0  0  0
    1.1387    0.8555    0.0000 C   0  0  0  0  0  0  0  0  0  0  0  0
    2.6378    2.3479    0.0000 C   0  0  1  0  0  0  0  0  0  0  0  0
    2.6378    3.1729    0.0000 C   0  0  0  0  0  0  0  0  0  0  0  0
    1.9233    3.5854    0.0000 C   0  0  0  0  0  0  0  0  0  0  0  0
    1.9233    4.4104    0.0000 C   0  0  0  0  0  0  0  0  0  0  0  0
    2.6378    4.8229    0.0000 C   0  0  0  0  0  0  0  0  0  0  0  0
    2.6378    5.6479    0.0000 C   0  0  0  0  0  0  0  0  0  0  0  0
    2.6378    6.4729    0.0000 N   0  0  0  0  0  0  0  0  0  0  0  0
    3.3523    4.4104    0.0000 C   0  0  0  0  0  0  0  0  0  0  0  0
    3.3523    3.5854    0.0000 C   0  0  0  0  0  0  0  0  0  0  0  0
  1  2  1  0  0  0  0
  2  3  2  0  0  0  0
  2  4  2  0  0  0  0
  2  5  1  0  0  0  0
  5  6  1  0  0  0  0
  6  7  2  0  0  0  0
  6  8  1  0  0  0  0
  8  9  1  0  0  0  0
  9 10  4  0  0  0  0
 10 11  4  0  0  0  0
 11 12  4  0  0  0  0
 12 13  4  0  0  0  0
 13 14  1  0  0  0  0
 14 15  1  0  0  0  0
 14 16  1  0  0  0  0
 14 17  1  0  0  0  0
 13 18  4  0  0  0  0
  9 18  4  0  0  0  0
  8 19  1  0  0  0  0
 19 20  2  0  0  0  0
 20 21  1  0  0  0  0
 21 22  2  0  0  0  0
 21 23  1  0  0  0  0
 23 24  1  0  0  0  0
 19 24  1  0  0  0  0
 25 20  1  0  0  0  0
 25  5  1  0  0  0  0
 25 26  1  1  0  0  0
 26 27  4  0  0  0  0
 27 28  4  0  0  0  0
 28 29  4  0  0  0  0
 29 30  1  0  0  0  0
 30 31  3  0  0  0  0
 29 32  4  0  0  0  0
 32 33  4  0  0  0  0
 26 33  4  0  0  0  0
M  END
>  <CdId>
429

>  <Mol Weight>
475.44

>  <Formula>
C22H16F3N3O4S

>  <Molecule ChEMBL ID>
CHEMBL4107405

>  <Molecule Max Phase>
None

>  <Molecular Weight>
475.45

>  <#RO5 Violations>
0

>  <AlogP>
4.14

>  <Compound Key>
BDBM211754

>  <Standard Type>
IC50

>  <Standard Relation>
'>'

>  <Standard Value>
50000.0

>  <Standard Units>
nM

$$$$

  Mrv2114 03112311372D          

 36 41  0  0  0  0            999 V2000
    3.8691    4.2867    0.0000 O   0  0  0  0  0  0  0  0  0  0  0  0
    4.6941    4.2867    0.0000 C   0  0  0  0  0  0  0  0  0  0  0  0
    5.1066    5.0012    0.0000 N   0  0  0  0  0  0  0  0  0  0  0  0
    4.6941    5.7157    0.0000 C   0  0  0  0  0  0  0  0  0  0  0  0
    3.8691    5.7157    0.0000 C   0  0  0  0  0  0  0  0  0  0  0  0
    3.4566    6.4301    0.0000 C   0  0  0  0  0  0  0  0  0  0  0  0
    3.8691    7.1446    0.0000 N   0  0  0  0  0  0  0  0  0  0  0  0
    4.6941    7.1446    0.0000 C   0  0  0  0  0  0  0  0  0  0  0  0
    5.1066    6.4301    0.0000 C   0  0  0  0  0  0  0  0  0  0  0  0
    5.1066    3.5723    0.0000 N   0  0  0  0  0  0  0  0  0  0  0  0
    4.6941    2.8578    0.0000 C   0  0  0  0  0  0  0  0  0  0  0  0
    5.1066    2.1433    0.0000 C   0  0  0  0  0  0  0  0  0  0  0  0
    4.6941    1.4288    0.0000 C   0  0  0  0  0  0  0  0  0  0  0  0
    3.8691    1.4288    0.0000 C   0  0  0  0  0  0  0  0  0  0  0  0
    3.4566    0.7144    0.0000 C   0  0  0  0  0  0  0  0  0  0  0  0
    3.8691   -0.0001    0.0000 N   0  0  0  0  0  0  0  0  0  0  0  0
    3.4566   -0.7146    0.0000 C   0  0  0  0  0  0  0  0  0  0  0  0
    3.8691   -1.4290    0.0000 N   0  0  0  0  0  0  0  0  0  0  0  0
    4.6941   -1.4290    0.0000 C   0  0  0  0  0  0  0  0  0  0  0  0
    5.1066   -2.1435    0.0000 C   0  0  0  0  0  0  0  0  0  0  0  0
    4.6941   -2.8580    0.0000 O   0  0  0  0  0  0  0  0  0  0  0  0
    3.8691   -2.8580    0.0000 C   0  0  0  0  0  0  0  0  0  0  0  0
    3.4566   -2.1435    0.0000 C   0  0  0  0  0  0  0  0  0  0  0  0
    2.6316   -0.7146    0.0000 N   0  0  0  0  0  0  0  0  0  0  0  0
    2.0215   -0.1243    0.0000 C   0  0  0  0  0  0  0  0  0  0  0  0
    1.3941   -0.0001    0.0000 N   0  0  0  0  0  0  0  0  0  0  0  0
    1.1624    0.9268    0.0000 C   0  0  0  0  0  0  0  0  0  0  0  0
    0.5174    0.4124    0.0000 C   0  0  0  0  0  0  0  0  0  0  0  0
    0.5174   -0.4126    0.0000 C   0  0  0  0  0  0  0  0  0  0  0  0
    1.1624   -0.9270    0.0000 C   0  0  0  0  0  0  0  0  0  0  0  0
    1.9667   -0.7434    0.0000 C   0  0  0  0  0  0  0  0  0  0  0  0
    2.3247   -0.0001    0.0000 O   0  0  0  0  0  0  0  0  0  0  0  0
    1.9667    0.7432    0.0000 C   0  0  0  0  0  0  0  0  0  0  0  0
    2.6316    0.7144    0.0000 N   0  0  0  0  0  0  0  0  0  0  0  0
    3.4566    2.1433    0.0000 C   0  0  0  0  0  0  0  0  0  0  0  0
    3.8691    2.8578    0.0000 C   0  0  0  0  0  0  0  0  0  0  0  0
  1  2  2  0  0  0  0
  2  3  1  0  0  0  0
  3  4  1  0  0  0  0
  4  5  4  0  0  0  0
  5  6  4  0  0  0  0
  6  7  4  0  0  0  0
  7  8  4  0  0  0  0
  8  9  4  0  0  0  0
  4  9  4  0  0  0  0
  2 10  1  0  0  0  0
 10 11  1  0  0  0  0
 11 12  4  0  0  0  0
 12 13  4  0  0  0  0
 13 14  4  0  0  0  0
 14 15  1  0  0  0  0
 15 16  4  0  0  0  0
 16 17  4  0  0  0  0
 17 18  1  0  0  0  0
 18 19  1  0  0  0  0
 19 20  1  0  0  0  0
 20 21  1  0  0  0  0
 21 22  1  0  0  0  0
 22 23  1  0  0  0  0
 18 23  1  0  0  0  0
 17 24  4  0  0  0  0
 24 25  4  0  0  0  0
 25 26  1  0  0  0  0
 26 27  1  0  0  0  0
 27 28  1  0  0  0  0
 28 29  1  0  0  0  0
 29 30  1  0  0  0  0
 26 30  1  0  0  0  0
 30 31  1  0  0  0  0
 31 32  1  0  0  0  0
 32 33  1  0  0  0  0
 27 33  1  0  0  0  0
 25 34  4  0  0  0  0
 15 34  4  0  0  0  0
 14 35  4  0  0  0  0
 35 36  4  0  0  0  0
 11 36  4  0  0  0  0
M  END
>  <CdId>
430

>  <Mol Weight>
488.552

>  <Formula>
C25H28N8O3

>  <Molecule ChEMBL ID>
CHEMBL1258517

>  <Molecule Name>
PKI-179

>  <Molecule Max Phase>
1

>  <Molecular Weight>
488.55

>  <#RO5 Violations>
0

>  <AlogP>
2.78

>  <Compound Key>
8m

>  <Standard Type>
IC50

>  <Standard Relation>
'='

>  <Standard Value>
3000.0

>  <Standard Units>
nM

$$$$

  Mrv2114 03112311372D          

 39 44  0  0  0  0            999 V2000
    1.1809   -3.5477    0.0000 C   0  0  0  0  0  0  0  0  0  0  0  0
    1.4358   -2.7631    0.0000 N   0  0  0  0  0  0  0  0  0  0  0  0
    0.8838   -2.1500    0.0000 C   0  0  0  0  0  0  0  0  0  0  0  0
    0.0768   -2.3215    0.0000 O   0  0  0  0  0  0  0  0  0  0  0  0
    1.1387   -1.3654    0.0000 C   0  0  0  0  0  0  0  0  0  0  0  0
    0.6538   -0.6979    0.0000 C   0  0  0  0  0  0  0  0  0  0  0  0
   -0.1712   -0.6979    0.0000 C   0  0  0  0  0  0  0  0  0  0  0  0
   -0.5837   -1.4124    0.0000 C   0  0  0  0  0  0  0  0  0  0  0  0
   -1.4087   -1.4124    0.0000 C   0  0  0  0  0  0  0  0  0  0  0  0
   -1.8212   -0.6979    0.0000 C   0  0  0  0  0  0  0  0  0  0  0  0
   -2.6462   -0.6979    0.0000 F   0  0  0  0  0  0  0  0  0  0  0  0
   -1.4087    0.0165    0.0000 C   0  0  0  0  0  0  0  0  0  0  0  0
   -0.5837    0.0165    0.0000 C   0  0  0  0  0  0  0  0  0  0  0  0
    1.1387   -0.0305    0.0000 O   0  0  0  0  0  0  0  0  0  0  0  0
    1.9233   -0.2854    0.0000 C   0  0  0  0  0  0  0  0  0  0  0  0
    2.6378    0.1271    0.0000 C   0  0  0  0  0  0  0  0  0  0  0  0
    3.3523   -0.2854    0.0000 C   0  0  0  0  0  0  0  0  0  0  0  0
    3.3523   -1.1104    0.0000 C   0  0  0  0  0  0  0  0  0  0  0  0
    4.0668   -1.5229    0.0000 C   0  0  0  0  0  0  0  0  0  0  0  0
    4.7812   -1.1104    0.0000 C   0  0  0  0  0  0  0  0  0  0  0  0
    5.4957   -1.5229    0.0000 C   0  0  0  0  0  0  0  0  0  0  0  0
    6.2102   -1.1104    0.0000 C   0  0  0  0  0  0  0  0  0  0  0  0
    6.9246   -1.5229    0.0000 O   0  0  0  0  0  0  0  0  0  0  0  0
    6.2102   -0.2854    0.0000 N   0  0  0  0  0  0  0  0  0  0  0  0
    6.9246    0.1271    0.0000 C   0  0  0  0  0  0  0  0  0  0  0  0
    6.6425    0.9023    0.0000 C   0  0  0  0  0  0  0  0  0  0  0  0
    5.8300    1.0456    0.0000 N   0  0  0  0  0  0  0  0  0  0  0  0
    5.5478    1.8208    0.0000 C   0  0  0  0  0  0  0  0  0  0  0  0
    6.0781    2.4528    0.0000 C   0  0  0  0  0  0  0  0  0  0  0  0
    6.8906    2.3095    0.0000 C   0  0  0  0  0  0  0  0  0  0  0  0
    7.1728    1.5343    0.0000 N   0  0  0  0  0  0  0  0  0  0  0  0
    7.4549   -0.5049    0.0000 C   0  0  0  0  0  0  0  0  0  0  0  0
    7.7371    0.2703    0.0000 C   0  0  0  0  0  0  0  0  0  0  0  0
    5.4957   -2.3479    0.0000 C   0  0  0  0  0  0  0  0  0  0  0  0
    4.7812   -2.7604    0.0000 C   0  0  0  0  0  0  0  0  0  0  0  0
    4.0668   -2.3479    0.0000 C   0  0  0  0  0  0  0  0  0  0  0  0
    3.3523   -2.7604    0.0000 C   0  0  0  0  0  0  0  0  0  0  0  0
    2.6378   -1.5229    0.0000 C   0  0  0  0  0  0  0  0  0  0  0  0
    1.9233   -1.1104    0.0000 C   0  0  0  0  0  0  0  0  0  0  0  0
  1  2  1  0  0  0  0
  2  3  1  0  0  0  0
  3  4  2  0  0  0  0
  3  5  1  0  0  0  0
  5  6  4  0  0  0  0
  6  7  1  0  0  0  0
  7  8  4  0  0  0  0
  8  9  4  0  0  0  0
  9 10  4  0  0  0  0
 10 11  1  0  0  0  0
 10 12  4  0  0  0  0
 12 13  4  0  0  0  0
  7 13  4  0  0  0  0
  6 14  4  0  0  0  0
 14 15  4  0  0  0  0
 15 16  4  0  0  0  0
 16 17  4  0  0  0  0
 17 18  4  0  0  0  0
 18 19  1  0  0  0  0
 19 20  4  0  0  0  0
 20 21  4  0  0  0  0
 21 22  1  0  0  0  0
 22 23  2  0  0  0  0
 22 24  1  0  0  0  0
 24 25  1  0  0  0  0
 25 26  1  0  0  0  0
 26 27  4  0  0  0  0
 27 28  4  0  0  0  0
 28 29  4  0  0  0  0
 29 30  4  0  0  0  0
 30 31  4  0  0  0  0
 26 31  4  0  0  0  0
 25 32  1  0  0  0  0
 32 33  1  0  0  0  0
 25 33  1  0  0  0  0
 21 34  4  0  0  0  0
 34 35  4  0  0  0  0
 35 36  4  0  0  0  0
 19 36  4  0  0  0  0
 36 37  1  0  0  0  0
 18 38  4  0  0  0  0
 38 39  4  0  0  0  0
  5 39  4  0  0  0  0
 15 39  4  0  0  0  0
M  END
>  <CdId>
431

>  <Mol Weight>
520.564

>  <Formula>
C31H25FN4O3

>  <Molecule ChEMBL ID>
CHEMBL4104000

>  <Molecule Max Phase>
None

>  <Molecular Weight>
520.56

>  <#RO5 Violations>
2

>  <AlogP>
5.78

>  <Compound Key>
32

>  <Standard Type>
IC50

>  <Standard Relation>
'='

>  <Standard Value>
3900.0

>  <Standard Units>
nM

$$$$

  Mrv2114 03112311372D          

 37 41  0  0  0  0            999 V2000
   -2.1434   -2.8875    0.0000 C   0  0  0  0  0  0  0  0  0  0  0  0
   -1.4289   -2.4750    0.0000 N   0  0  0  0  0  0  0  0  0  0  0  0
   -1.4289   -1.6500    0.0000 C   0  0  0  0  0  0  0  0  0  0  0  0
   -0.7145   -1.2375    0.0000 C   0  0  0  0  0  0  0  0  0  0  0  0
    0.0000   -1.6500    0.0000 N   0  0  0  0  0  0  0  0  0  0  0  0
    0.7145   -1.2375    0.0000 C   0  0  0  0  0  0  0  0  0  0  0  0
    0.7145   -0.4125    0.0000 C   0  0  0  0  0  0  0  0  0  0  0  0
    1.4289    0.0000    0.0000 N   0  0  0  0  0  0  0  0  0  0  0  0
    2.1434   -0.4125    0.0000 C   0  0  0  0  0  0  0  0  0  0  0  0
    2.8579    0.0000    0.0000 C   0  0  0  0  0  0  0  0  0  0  0  0
    2.8579    0.8250    0.0000 C   0  0  0  0  0  0  0  0  0  0  0  0
    2.1434    1.2375    0.0000 C   0  0  0  0  0  0  0  0  0  0  0  0
    2.1434    2.0625    0.0000 C   0  0  0  0  0  0  0  0  0  0  0  0
    2.8579    2.4750    0.0000 N   0  0  0  0  0  0  0  0  0  0  0  0
    2.8579    3.3000    0.0000 C   0  0  0  0  0  0  0  0  0  0  0  0
    2.1434    3.7125    0.0000 O   0  0  0  0  0  0  0  0  0  0  0  0
    3.5724    3.7125    0.0000 C   0  0  0  0  0  0  0  0  0  0  0  0
    3.5724    4.5375    0.0000 C   0  0  0  0  0  0  0  0  0  0  0  0
    4.2868    4.9500    0.0000 C   0  0  0  0  0  0  0  0  0  0  0  0
    5.0013    4.5375    0.0000 C   0  0  0  0  0  0  0  0  0  0  0  0
    5.7158    4.9500    0.0000 O   0  0  0  0  0  0  0  0  0  0  0  0
    5.7158    5.7750    0.0000 C   0  0  0  0  0  0  0  0  0  0  0  0
    5.7158    6.6000    0.0000 F   0  0  0  0  0  0  0  0  0  0  0  0
    6.5408    5.7750    0.0000 F   0  0  0  0  0  0  0  0  0  0  0  0
    4.8908    5.7750    0.0000 F   0  0  0  0  0  0  0  0  0  0  0  0
    5.0013    3.7125    0.0000 C   0  0  0  0  0  0  0  0  0  0  0  0
    4.2868    3.3000    0.0000 C   0  0  0  0  0  0  0  0  0  0  0  0
    4.2868    2.4750    0.0000 N   0  0  0  0  0  0  0  0  0  0  0  0
    3.5724    2.0625    0.0000 C   0  0  0  0  0  0  0  0  0  0  0  0
    3.5724    1.2375    0.0000 C   0  0  0  0  0  0  0  0  0  0  0  0
    3.5724   -0.4125    0.0000 N   0  0  0  0  0  0  0  0  0  0  0  0
    3.5724   -1.2375    0.0000 C   0  0  0  0  0  0  0  0  0  0  0  0
    2.8579   -1.6500    0.0000 N   0  0  0  0  0  0  0  0  0  0  0  0
    2.1434   -1.2375    0.0000 C   0  0  0  0  0  0  0  0  0  0  0  0
    1.4289   -1.6500    0.0000 C   0  0  0  0  0  0  0  0  0  0  0  0
    0.0000   -2.4750    0.0000 C   0  0  0  0  0  0  0  0  0  0  0  0
   -0.7145   -2.8875    0.0000 C   0  0  0  0  0  0  0  0  0  0  0  0
  1  2  1  0  0  0  0
  2  3  1  0  0  0  0
  3  4  1  0  0  0  0
  4  5  1  0  0  0  0
  5  6  1  0  0  0  0
  6  7  4  0  0  0  0
  7  8  4  0  0  0  0
  8  9  4  0  0  0  0
  9 10  4  0  0  0  0
 10 11  1  0  0  0  0
 11 12  1  0  0  0  0
 12 13  1  0  0  0  0
 13 14  1  0  0  0  0
 14 15  1  0  0  0  0
 15 16  2  0  0  0  0
 15 17  1  0  0  0  0
 17 18  4  0  0  0  0
 18 19  4  0  0  0  0
 19 20  4  0  0  0  0
 20 21  1  0  0  0  0
 21 22  1  0  0  0  0
 22 23  1  0  0  0  0
 22 24  1  0  0  0  0
 22 25  1  0  0  0  0
 20 26  4  0  0  0  0
 26 27  4  0  0  0  0
 17 27  4  0  0  0  0
 27 28  1  0  0  0  0
 14 29  1  0  0  0  0
 29 30  1  0  0  0  0
 11 30  1  0  0  0  0
 10 31  4  0  0  0  0
 31 32  4  0  0  0  0
 32 33  4  0  0  0  0
 33 34  4  0  0  0  0
  9 34  4  0  0  0  0
 34 35  4  0  0  0  0
  6 35  4  0  0  0  0
  5 36  1  0  0  0  0
 36 37  1  0  0  0  0
  2 37  1  0  0  0  0
M  END
>  <CdId>
432

>  <Mol Weight>
515.541

>  <Formula>
C25H28F3N7O2

>  <Molecule ChEMBL ID>
CHEMBL4445670

>  <Molecule Name>
BAY-885

>  <Molecule Max Phase>
None

>  <Molecular Weight>
515.54

>  <#RO5 Violations>
1

>  <AlogP>
3.28

>  <Compound Key>
BAY-885; 41

>  <Standard Type>
IC50

>  <Standard Relation>
'>'

>  <Standard Value>
20000.0

>  <Standard Units>
nM

$$$$

  Mrv2114 03112311372D          

 31 33  0  0  1  0            999 V2000
    0.0000   -4.9500    0.0000 C   0  0  0  0  0  0  0  0  0  0  0  0
    0.7145   -4.5375    0.0000 C   0  0  0  0  0  0  0  0  0  0  0  0
    0.7145   -3.7125    0.0000 C   0  0  1  0  0  0  0  0  0  0  0  0
    1.4289   -3.3000    0.0000 N   0  0  0  0  0  0  0  0  0  0  0  0
    2.1434   -3.7125    0.0000 C   0  0  0  0  0  0  0  0  0  0  0  0
    2.1434   -4.5375    0.0000 O   0  0  0  0  0  0  0  0  0  0  0  0
    2.8579   -3.3000    0.0000 C   0  0  0  0  0  0  0  0  0  0  0  0
    2.8579   -2.4750    0.0000 C   0  0  0  0  0  0  0  0  0  0  0  0
    3.5724   -2.0625    0.0000 C   0  0  0  0  0  0  0  0  0  0  0  0
    4.2868   -2.4750    0.0000 C   0  0  0  0  0  0  0  0  0  0  0  0
    5.0013   -2.0625    0.0000 O   0  0  0  0  0  0  0  0  0  0  0  0
    5.7158   -2.4750    0.0000 C   0  0  0  0  0  0  0  0  0  0  0  0
    4.2868   -3.3000    0.0000 N   0  0  0  0  0  0  0  0  0  0  0  0
    3.5724   -3.7125    0.0000 C   0  0  0  0  0  0  0  0  0  0  0  0
    0.0000   -3.3000    0.0000 C   0  0  1  0  0  0  0  0  0  0  0  0
   -0.7145   -3.7125    0.0000 C   0  0  0  0  0  0  0  0  0  0  0  0
   -1.4289   -3.3000    0.0000 C   0  0  0  0  0  0  0  0  0  0  0  0
   -1.4289   -2.4750    0.0000 C   0  0  1  0  0  0  0  0  0  0  0  0
   -2.1434   -2.0625    0.0000 C   0  0  0  0  0  0  0  0  0  0  0  0
   -2.8579   -2.4750    0.0000 C   0  0  0  0  0  0  0  0  0  0  0  0
   -3.5724   -2.0625    0.0000 C   0  0  0  0  0  0  0  0  0  0  0  0
   -3.5724   -1.2375    0.0000 N   0  0  0  0  0  0  0  0  0  0  0  0
   -2.8579   -0.8250    0.0000 C   0  0  0  0  0  0  0  0  0  0  0  0
   -2.8579   -0.0000    0.0000 O   0  0  0  0  0  0  0  0  0  0  0  0
   -3.5724    0.4125    0.0000 C   0  0  0  0  0  0  0  0  0  0  0  0
   -2.1434   -1.2375    0.0000 C   0  0  0  0  0  0  0  0  0  0  0  0
   -1.4289   -0.8250    0.0000 C   0  0  0  0  0  0  0  0  0  0  0  0
   -0.7145   -1.2375    0.0000 F   0  0  0  0  0  0  0  0  0  0  0  0
   -1.4289   -0.0000    0.0000 F   0  0  0  0  0  0  0  0  0  0  0  0
   -0.7145   -2.0625    0.0000 C   0  0  0  0  0  0  0  0  0  0  0  0
    0.0000   -2.4750    0.0000 C   0  0  0  0  0  0  0  0  0  0  0  0
  1  2  1  0  0  0  0
  3  2  1  0  0  0  0
  3  4  1  6  0  0  0
  4  5  1  0  0  0  0
  5  6  2  0  0  0  0
  5  7  1  0  0  0  0
  7  8  4  0  0  0  0
  8  9  4  0  0  0  0
  9 10  4  0  0  0  0
 10 11  1  0  0  0  0
 11 12  1  0  0  0  0
 10 13  4  0  0  0  0
 13 14  4  0  0  0  0
  7 14  4  0  0  0  0
  3 15  1  0  0  0  0
 15 16  1  1  0  0  0
 16 17  1  0  0  0  0
 18 17  1  0  0  0  0
 18 19  1  1  0  0  0
 19 20  4  0  0  0  0
 20 21  4  0  0  0  0
 21 22  4  0  0  0  0
 22 23  4  0  0  0  0
 23 24  1  0  0  0  0
 24 25  1  0  0  0  0
 23 26  4  0  0  0  0
 19 26  4  0  0  0  0
 26 27  1  0  0  0  0
 27 28  1  0  0  0  0
 27 29  1  0  0  0  0
 18 30  1  0  0  0  0
 30 31  1  0  0  0  0
 15 31  1  0  0  0  0
M  END
>  <CdId>
433

>  <Mol Weight>
433.5

>  <Formula>
C23H29F2N3O3

>  <Molecule ChEMBL ID>
CHEMBL4848094

>  <Molecule Max Phase>
None

>  <Molecular Weight>
433.5

>  <#RO5 Violations>
0

>  <AlogP>
4.91

>  <Compound Key>
29

>  <Standard Type>
IC50

>  <Standard Relation>
'='

>  <Standard Value>
4010.0

>  <Standard Units>
nM

$$$$

  Mrv2114 03112311372D          

 24 27  0  0  0  0            999 V2000
    6.2102    3.5854    0.0000 F   0  0  0  0  0  0  0  0  0  0  0  0
    5.4957    3.1729    0.0000 C   0  0  0  0  0  0  0  0  0  0  0  0
    5.4957    2.3479    0.0000 C   0  0  0  0  0  0  0  0  0  0  0  0
    4.7812    1.9354    0.0000 C   0  0  0  0  0  0  0  0  0  0  0  0
    4.0668    2.3479    0.0000 C   0  0  0  0  0  0  0  0  0  0  0  0
    3.3523    1.9354    0.0000 C   0  0  0  0  0  0  0  0  0  0  0  0
    3.3523    1.1104    0.0000 C   0  0  0  0  0  0  0  0  0  0  0  0
    2.6378    0.6979    0.0000 C   0  0  0  0  0  0  0  0  0  0  0  0
    2.6378   -0.1271    0.0000 N   0  0  0  0  0  0  0  0  0  0  0  0
    1.9233   -0.5396    0.0000 C   0  0  0  0  0  0  0  0  0  0  0  0
    1.9233   -1.3646    0.0000 C   0  0  0  0  0  0  0  0  0  0  0  0
    1.2089   -1.7771    0.0000 C   0  0  0  0  0  0  0  0  0  0  0  0
    0.4944   -1.3646    0.0000 N   0  0  0  0  0  0  0  0  0  0  0  0
    0.4944   -0.5396    0.0000 C   0  0  0  0  0  0  0  0  0  0  0  0
    1.2089   -0.1271    0.0000 C   0  0  0  0  0  0  0  0  0  0  0  0
    1.9233    1.1104    0.0000 C   0  0  0  0  0  0  0  0  0  0  0  0
    1.1387    0.8555    0.0000 C   0  0  0  0  0  0  0  0  0  0  0  0
    0.6538    1.5229    0.0000 C   0  0  0  0  0  0  0  0  0  0  0  0
    1.1387    2.1904    0.0000 N   0  0  0  0  0  0  0  0  0  0  0  0
    1.9233    1.9354    0.0000 C   0  0  0  0  0  0  0  0  0  0  0  0
    2.6378    2.3479    0.0000 N   0  0  0  0  0  0  0  0  0  0  0  0
    4.0668    3.1729    0.0000 C   0  0  0  0  0  0  0  0  0  0  0  0
    3.3523    3.5854    0.0000 F   0  0  0  0  0  0  0  0  0  0  0  0
    4.7812    3.5854    0.0000 C   0  0  0  0  0  0  0  0  0  0  0  0
  1  2  1  0  0  0  0
  2  3  4  0  0  0  0
  3  4  4  0  0  0  0
  4  5  4  0  0  0  0
  5  6  1  0  0  0  0
  6  7  4  0  0  0  0
  7  8  4  0  0  0  0
  8  9  1  0  0  0  0
  9 10  1  0  0  0  0
 10 11  4  0  0  0  0
 11 12  4  0  0  0  0
 12 13  4  0  0  0  0
 13 14  4  0  0  0  0
 14 15  4  0  0  0  0
 10 15  4  0  0  0  0
  8 16  4  0  0  0  0
 16 17  4  0  0  0  0
 17 18  4  0  0  0  0
 18 19  4  0  0  0  0
 19 20  4  0  0  0  0
 16 20  4  0  0  0  0
 20 21  4  0  0  0  0
  6 21  4  0  0  0  0
  5 22  4  0  0  0  0
 22 23  1  0  0  0  0
 22 24  4  0  0  0  0
  2 24  4  0  0  0  0
M  STY  1   1 DAT
M  SAL   1  1  19
M  SDT   1 MRV_IMPLICIT_H                                        
M  SDD   1     0.0000    0.0000    DR    ALL  0       0  
M  SED   1 IMPL_H1
M  END
>  <CdId>
434

>  <Mol Weight>
322.319

>  <Formula>
C18H12F2N4

>  <Molecule ChEMBL ID>
CHEMBL4446613

>  <Molecule Max Phase>
None

>  <Molecular Weight>
322.32

>  <#RO5 Violations>
0

>  <AlogP>
4.65

>  <Compound Key>
2

>  <Standard Type>
IC50

>  <Standard Relation>
'='

>  <Standard Value>
79.43

>  <Standard Units>
nM

$$$$

  Mrv2114 03112311372D          

 27 30  0  0  1  0            999 V2000
   -2.1262    0.1913    0.0000 C   0  0  0  0  0  0  0  0  0  0  0  0
   -1.3057    0.2775    0.0000 C   0  0  0  0  0  0  0  0  0  0  0  0
   -0.8932    0.9920    0.0000 C   0  0  0  0  0  0  0  0  0  0  0  0
   -0.0862    0.8205    0.0000 O   0  0  0  0  0  0  0  0  0  0  0  0
    0.0000    0.0000    0.0000 C   0  0  0  0  0  0  0  0  0  0  0  0
    0.7145   -0.4125    0.0000 C   0  0  1  0  0  0  0  0  0  0  0  0
    1.4289    0.0000    0.0000 C   0  0  0  0  0  0  0  0  0  0  0  0
    2.1434   -0.4125    0.0000 C   0  0  1  0  0  0  0  0  0  0  0  0
    2.8579    0.0000    0.0000 C   0  0  1  0  0  0  0  0  0  0  0  0
    2.8579    0.8250    0.0000 C   0  0  0  0  0  0  0  0  0  0  0  0
    3.5724    1.2375    0.0000 F   0  0  0  0  0  0  0  0  0  0  0  0
    3.5724   -0.4125    0.0000 S   0  0  0  0  0  0  0  0  0  0  0  0
    3.5724   -1.2375    0.0000 C   0  0  0  0  0  0  0  0  0  0  0  0
    4.2868   -1.6500    0.0000 N   0  0  0  0  0  0  0  0  0  0  0  0
    2.8579   -1.6500    0.0000 N   0  0  0  0  0  0  0  0  0  0  0  0
    2.1434   -1.2375    0.0000 C   0  0  2  0  0  0  0  0  0  0  0  0
    2.1434   -2.0625    0.0000 C   0  0  0  0  0  0  0  0  0  0  0  0
    2.8579   -2.4750    0.0000 C   0  0  0  0  0  0  0  0  0  0  0  0
    2.8579   -3.3000    0.0000 C   0  0  0  0  0  0  0  0  0  0  0  0
    2.1434   -3.7125    0.0000 C   0  0  0  0  0  0  0  0  0  0  0  0
    2.1434   -4.5375    0.0000 F   0  0  0  0  0  0  0  0  0  0  0  0
    1.4289   -3.3000    0.0000 C   0  0  0  0  0  0  0  0  0  0  0  0
    1.4289   -2.4750    0.0000 C   0  0  0  0  0  0  0  0  0  0  0  0
    0.7145   -2.0625    0.0000 F   0  0  0  0  0  0  0  0  0  0  0  0
    1.4289   -1.6500    0.0000 C   0  0  0  0  0  0  0  0  0  0  0  0
    0.7145   -1.2375    0.0000 O   0  0  0  0  0  0  0  0  0  0  0  0
   -0.7537   -0.3356    0.0000 N   0  0  0  0  0  0  0  0  0  0  0  0
  1  2  1  0  0  0  0
  2  3  4  0  0  0  0
  3  4  4  0  0  0  0
  4  5  4  0  0  0  0
  6  5  1  1  0  0  0
  6  7  1  0  0  0  0
  8  7  1  1  0  0  0
  8  9  1  0  0  0  0
  9 10  1  1  0  0  0
 10 11  1  0  0  0  0
  9 12  1  0  0  0  0
 12 13  1  0  0  0  0
 13 14  1  0  0  0  0
 13 15  2  0  0  0  0
 16 15  1  0  0  0  0
  8 16  1  0  0  0  0
 16 17  1  6  0  0  0
 17 18  4  0  0  0  0
 18 19  4  0  0  0  0
 19 20  4  0  0  0  0
 20 21  1  0  0  0  0
 20 22  4  0  0  0  0
 22 23  4  0  0  0  0
 17 23  4  0  0  0  0
 23 24  1  0  0  0  0
 16 25  1  0  0  0  0
 25 26  1  0  0  0  0
  6 26  1  0  0  0  0
  5 27  4  0  0  0  0
  2 27  4  0  0  0  0
M  END
>  <CdId>
435

>  <Mol Weight>
397.42

>  <Formula>
C18H18F3N3O2S

>  <Molecule ChEMBL ID>
CHEMBL3422244

>  <Molecule Max Phase>
None

>  <Molecular Weight>
397.42

>  <#RO5 Violations>
0

>  <AlogP>
3.63

>  <Compound Key>
12

>  <Standard Type>
IC50

>  <Standard Relation>
'>'

>  <Standard Value>
30000.0

>  <Standard Units>
nM

$$$$

  Mrv2114 03112311372D          

 25 28  0  0  1  0            999 V2000
   -2.1262    0.1913    0.0000 C   0  0  0  0  0  0  0  0  0  0  0  0
   -1.3057    0.2775    0.0000 C   0  0  0  0  0  0  0  0  0  0  0  0
   -0.8932    0.9920    0.0000 C   0  0  0  0  0  0  0  0  0  0  0  0
   -0.0862    0.8205    0.0000 O   0  0  0  0  0  0  0  0  0  0  0  0
    0.0000    0.0000    0.0000 C   0  0  0  0  0  0  0  0  0  0  0  0
    0.7145   -0.4125    0.0000 C   0  0  1  0  0  0  0  0  0  0  0  0
    1.4289    0.0000    0.0000 C   0  0  0  0  0  0  0  0  0  0  0  0
    2.1434   -0.4125    0.0000 C   0  0  1  0  0  0  0  0  0  0  0  0
    2.8579    0.0000    0.0000 C   0  0  0  0  0  0  0  0  0  0  0  0
    3.5724   -0.4125    0.0000 S   0  0  0  0  0  0  0  0  0  0  0  0
    3.5724   -1.2375    0.0000 C   0  0  0  0  0  0  0  0  0  0  0  0
    4.2868   -1.6500    0.0000 N   0  0  0  0  0  0  0  0  0  0  0  0
    2.8579   -1.6500    0.0000 N   0  0  0  0  0  0  0  0  0  0  0  0
    2.1434   -1.2375    0.0000 C   0  0  2  0  0  0  0  0  0  0  0  0
    2.1434   -2.0625    0.0000 C   0  0  0  0  0  0  0  0  0  0  0  0
    2.8579   -2.4750    0.0000 C   0  0  0  0  0  0  0  0  0  0  0  0
    2.8579   -3.3000    0.0000 C   0  0  0  0  0  0  0  0  0  0  0  0
    2.1434   -3.7125    0.0000 C   0  0  0  0  0  0  0  0  0  0  0  0
    2.1434   -4.5375    0.0000 F   0  0  0  0  0  0  0  0  0  0  0  0
    1.4289   -3.3000    0.0000 C   0  0  0  0  0  0  0  0  0  0  0  0
    1.4289   -2.4750    0.0000 C   0  0  0  0  0  0  0  0  0  0  0  0
    0.7145   -2.0625    0.0000 F   0  0  0  0  0  0  0  0  0  0  0  0
    1.4289   -1.6500    0.0000 C   0  0  0  0  0  0  0  0  0  0  0  0
    0.7145   -1.2375    0.0000 O   0  0  0  0  0  0  0  0  0  0  0  0
   -0.7537   -0.3356    0.0000 N   0  0  0  0  0  0  0  0  0  0  0  0
  1  2  1  0  0  0  0
  2  3  4  0  0  0  0
  3  4  4  0  0  0  0
  4  5  4  0  0  0  0
  6  5  1  1  0  0  0
  6  7  1  0  0  0  0
  8  7  1  1  0  0  0
  8  9  1  0  0  0  0
  9 10  1  0  0  0  0
 10 11  1  0  0  0  0
 11 12  1  0  0  0  0
 11 13  2  0  0  0  0
 14 13  1  0  0  0  0
  8 14  1  0  0  0  0
 14 15  1  6  0  0  0
 15 16  4  0  0  0  0
 16 17  4  0  0  0  0
 17 18  4  0  0  0  0
 18 19  1  0  0  0  0
 18 20  4  0  0  0  0
 20 21  4  0  0  0  0
 15 21  4  0  0  0  0
 21 22  1  0  0  0  0
 14 23  1  0  0  0  0
 23 24  1  0  0  0  0
  6 24  1  0  0  0  0
  5 25  4  0  0  0  0
  2 25  4  0  0  0  0
M  END
>  <CdId>
436

>  <Mol Weight>
365.4

>  <Formula>
C17H17F2N3O2S

>  <Molecule ChEMBL ID>
CHEMBL3422236

>  <Molecule Max Phase>
None

>  <Molecular Weight>
365.41

>  <#RO5 Violations>
0

>  <AlogP>
3.3

>  <Compound Key>
3

>  <Standard Type>
IC50

>  <Standard Relation>
'>'

>  <Standard Value>
30000.0

>  <Standard Units>
nM

$$$$

  Mrv2114 03112311372D          

 29 31  0  0  0  0            999 V2000
    0.9681   -6.5147    0.0000 C   0  0  0  0  0  0  0  0  0  0  0  0
    0.4161   -5.9016    0.0000 C   0  0  0  0  0  0  0  0  0  0  0  0
   -0.3909   -6.0731    0.0000 C   0  0  0  0  0  0  0  0  0  0  0  0
    0.6710   -5.1170    0.0000 C   0  0  0  0  0  0  0  0  0  0  0  0
    0.1190   -4.5039    0.0000 O   0  0  0  0  0  0  0  0  0  0  0  0
    0.3739   -3.7192    0.0000 C   0  0  0  0  0  0  0  0  0  0  0  0
   -0.1781   -3.1062    0.0000 N   0  0  0  0  0  0  0  0  0  0  0  0
    0.0768   -2.3215    0.0000 C   0  0  0  0  0  0  0  0  0  0  0  0
    0.8838   -2.1500    0.0000 C   0  0  0  0  0  0  0  0  0  0  0  0
    1.1387   -1.3654    0.0000 C   0  0  0  0  0  0  0  0  0  0  0  0
    0.6538   -0.6979    0.0000 C   0  0  0  0  0  0  0  0  0  0  0  0
    1.1387   -0.0305    0.0000 N   0  0  0  0  0  0  0  0  0  0  0  0
    0.8838    0.7541    0.0000 C   0  0  0  0  0  0  0  0  0  0  0  0
    1.9233   -0.2854    0.0000 C   0  0  0  0  0  0  0  0  0  0  0  0
    2.6378    0.1271    0.0000 C   0  0  0  0  0  0  0  0  0  0  0  0
    3.3523   -0.2854    0.0000 C   0  0  0  0  0  0  0  0  0  0  0  0
    4.0668    0.1271    0.0000 C   0  0  0  0  0  0  0  0  0  0  0  0
    4.0668    0.9521    0.0000 O   0  0  0  0  0  0  0  0  0  0  0  0
    4.7812   -0.2854    0.0000 N   0  0  0  0  0  0  0  0  0  0  0  0
    5.4957    0.1271    0.0000 S   0  0  0  0  0  0  0  0  0  0  0  0
    6.2102    0.5396    0.0000 C   0  0  0  0  0  0  0  0  0  0  0  0
    5.9082   -0.5874    0.0000 O   0  0  0  0  0  0  0  0  0  0  0  0
    5.0832    0.8415    0.0000 O   0  0  0  0  0  0  0  0  0  0  0  0
    3.3523   -1.1104    0.0000 C   0  0  0  0  0  0  0  0  0  0  0  0
    2.6378   -1.5229    0.0000 C   0  0  0  0  0  0  0  0  0  0  0  0
    1.9233   -1.1104    0.0000 C   0  0  0  0  0  0  0  0  0  0  0  0
    1.4358   -2.7631    0.0000 C   0  0  0  0  0  0  0  0  0  0  0  0
    1.1809   -3.5477    0.0000 C   0  0  0  0  0  0  0  0  0  0  0  0
    1.7329   -4.1608    0.0000 Cl  0  0  0  0  0  0  0  0  0  0  0  0
  1  2  1  0  0  0  0
  2  3  1  0  0  0  0
  2  4  1  0  0  0  0
  4  5  1  0  0  0  0
  5  6  1  0  0  0  0
  6  7  4  0  0  0  0
  7  8  4  0  0  0  0
  8  9  4  0  0  0  0
  9 10  1  0  0  0  0
 10 11  4  0  0  0  0
 11 12  4  0  0  0  0
 12 13  1  0  0  0  0
 12 14  4  0  0  0  0
 14 15  4  0  0  0  0
 15 16  4  0  0  0  0
 16 17  1  0  0  0  0
 17 18  2  0  0  0  0
 17 19  1  0  0  0  0
 19 20  1  0  0  0  0
 20 21  1  0  0  0  0
 20 22  2  0  0  0  0
 20 23  2  0  0  0  0
 16 24  4  0  0  0  0
 24 25  4  0  0  0  0
 25 26  4  0  0  0  0
 10 26  4  0  0  0  0
 14 26  4  0  0  0  0
  9 27  4  0  0  0  0
 27 28  4  0  0  0  0
  6 28  4  0  0  0  0
 28 29  1  0  0  0  0
M  END
>  <CdId>
437

>  <Mol Weight>
435.92

>  <Formula>
C20H22ClN3O4S

>  <Molecule ChEMBL ID>
CHEMBL4279180

>  <Molecule Max Phase>
None

>  <Molecular Weight>
435.93

>  <#RO5 Violations>
0

>  <AlogP>
3.62

>  <Compound Key>
29

>  <Standard Type>
IC50

>  <Standard Relation>
'='

>  <Standard Value>
1000.0

>  <Standard Units>
nM

$$$$

  Mrv2114 03112311372D          

 42 47  0  0  0  0            999 V2000
   -2.0049   -6.4162    0.0000 C   0  0  0  0  0  0  0  0  0  0  0  0
   -1.7499   -5.6315    0.0000 N   0  0  0  0  0  0  0  0  0  0  0  0
   -0.9429   -5.4600    0.0000 C   0  0  0  0  0  0  0  0  0  0  0  0
   -0.3909   -6.0731    0.0000 C   0  0  0  0  0  0  0  0  0  0  0  0
   -0.6880   -4.6754    0.0000 C   0  0  0  0  0  0  0  0  0  0  0  0
   -1.2400   -4.0623    0.0000 O   0  0  0  0  0  0  0  0  0  0  0  0
    0.1190   -4.5039    0.0000 N   0  0  0  0  0  0  0  0  0  0  0  0
    0.3739   -3.7192    0.0000 C   0  0  0  0  0  0  0  0  0  0  0  0
   -0.1781   -3.1062    0.0000 C   0  0  0  0  0  0  0  0  0  0  0  0
    0.0768   -2.3215    0.0000 C   0  0  0  0  0  0  0  0  0  0  0  0
    0.8838   -2.1500    0.0000 C   0  0  0  0  0  0  0  0  0  0  0  0
    1.1387   -1.3654    0.0000 C   0  0  0  0  0  0  0  0  0  0  0  0
    0.6538   -0.6979    0.0000 C   0  0  0  0  0  0  0  0  0  0  0  0
   -0.1712   -0.6979    0.0000 C   0  0  0  0  0  0  0  0  0  0  0  0
   -0.5837   -1.4124    0.0000 C   0  0  0  0  0  0  0  0  0  0  0  0
   -1.4087   -1.4124    0.0000 C   0  0  0  0  0  0  0  0  0  0  0  0
   -1.8212   -0.6979    0.0000 N   0  0  0  0  0  0  0  0  0  0  0  0
   -1.4087    0.0165    0.0000 C   0  0  0  0  0  0  0  0  0  0  0  0
   -0.5837    0.0165    0.0000 C   0  0  0  0  0  0  0  0  0  0  0  0
    1.1387   -0.0305    0.0000 N   0  0  0  0  0  0  0  0  0  0  0  0
    1.9233   -0.2854    0.0000 C   0  0  0  0  0  0  0  0  0  0  0  0
    2.6378    0.1271    0.0000 C   0  0  0  0  0  0  0  0  0  0  0  0
    3.3523   -0.2854    0.0000 C   0  0  0  0  0  0  0  0  0  0  0  0
    4.0668    0.1271    0.0000 C   0  0  0  0  0  0  0  0  0  0  0  0
    3.3523   -1.1104    0.0000 C   0  0  0  0  0  0  0  0  0  0  0  0
    2.6378   -1.5229    0.0000 C   0  0  0  0  0  0  0  0  0  0  0  0
    1.9233   -1.1104    0.0000 N   0  0  0  0  0  0  0  0  0  0  0  0
    1.4358   -2.7631    0.0000 C   0  0  0  0  0  0  0  0  0  0  0  0
    2.2428   -2.5916    0.0000 C   0  0  0  0  0  0  0  0  0  0  0  0
    3.0498   -2.4200    0.0000 C   0  0  0  0  0  0  0  0  0  0  0  0
    3.8567   -2.2485    0.0000 C   0  0  0  0  0  0  0  0  0  0  0  0
    4.1117   -1.4639    0.0000 C   0  0  0  0  0  0  0  0  0  0  0  0
    4.9186   -1.2924    0.0000 C   0  0  0  0  0  0  0  0  0  0  0  0
    5.4707   -1.9055    0.0000 C   0  0  0  0  0  0  0  0  0  0  0  0
    6.2776   -1.7339    0.0000 C   0  0  0  0  0  0  0  0  0  0  0  0
    6.6132   -0.9803    0.0000 C   0  0  0  0  0  0  0  0  0  0  0  0
    7.4337   -1.0665    0.0000 C   0  0  0  0  0  0  0  0  0  0  0  0
    7.6052   -1.8735    0.0000 O   0  0  0  0  0  0  0  0  0  0  0  0
    6.8907   -2.2860    0.0000 N   0  0  0  0  0  0  0  0  0  0  0  0
    5.2157   -2.6901    0.0000 C   0  0  0  0  0  0  0  0  0  0  0  0
    4.4088   -2.8616    0.0000 C   0  0  0  0  0  0  0  0  0  0  0  0
    1.1809   -3.5477    0.0000 N   0  0  0  0  0  0  0  0  0  0  0  0
  1  2  1  0  0  0  0
  2  3  1  0  0  0  0
  3  4  1  0  0  0  0
  3  5  1  0  0  0  0
  5  6  2  0  0  0  0
  5  7  1  0  0  0  0
  7  8  1  0  0  0  0
  8  9  4  0  0  0  0
  9 10  4  0  0  0  0
 10 11  4  0  0  0  0
 11 12  1  0  0  0  0
 12 13  4  0  0  0  0
 13 14  1  0  0  0  0
 14 15  4  0  0  0  0
 15 16  4  0  0  0  0
 16 17  4  0  0  0  0
 17 18  4  0  0  0  0
 18 19  4  0  0  0  0
 14 19  4  0  0  0  0
 13 20  4  0  0  0  0
 20 21  4  0  0  0  0
 21 22  4  0  0  0  0
 22 23  4  0  0  0  0
 23 24  1  0  0  0  0
 23 25  4  0  0  0  0
 25 26  4  0  0  0  0
 26 27  4  0  0  0  0
 12 27  4  0  0  0  0
 21 27  4  0  0  0  0
 11 28  4  0  0  0  0
 28 29  1  0  0  0  0
 29 30  3  0  0  0  0
 30 31  1  0  0  0  0
 31 32  4  0  0  0  0
 32 33  4  0  0  0  0
 33 34  4  0  0  0  0
 34 35  1  0  0  0  0
 35 36  4  0  0  0  0
 36 37  4  0  0  0  0
 37 38  4  0  0  0  0
 38 39  4  0  0  0  0
 35 39  4  0  0  0  0
 34 40  4  0  0  0  0
 40 41  4  0  0  0  0
 31 41  4  0  0  0  0
 28 42  4  0  0  0  0
  8 42  4  0  0  0  0
M  END
>  <CdId>
438

>  <Mol Weight>
553.626

>  <Formula>
C33H27N7O2

>  <Molecule ChEMBL ID>
CHEMBL3969750

>  <Molecule Max Phase>
None

>  <Molecular Weight>
553.63

>  <#RO5 Violations>
2

>  <AlogP>
5.37

>  <Compound Key>
BDBM253988

>  <Standard Type>
IC50

>  <Standard Relation>
'='

>  <Standard Value>
300.0

>  <Standard Units>
nM

$$$$

  Mrv2114 03112311372D          

 26 29  0  0  1  0            999 V2000
    6.8513   -2.4750    0.0000 C   0  0  0  0  0  0  0  0  0  0  0  0
    6.1368   -2.8875    0.0000 C   0  0  0  0  0  0  0  0  0  0  0  0
    6.1368   -3.7125    0.0000 C   0  0  0  0  0  0  0  0  0  0  0  0
    5.4223   -4.1250    0.0000 C   0  0  0  0  0  0  0  0  0  0  0  0
    5.4223   -4.9500    0.0000 N   0  0  0  0  0  0  0  0  0  0  0  0
    6.1368   -5.3625    0.0000 C   0  0  1  0  0  0  0  0  0  0  0  0
    6.8513   -4.9500    0.0000 C   0  0  0  0  0  0  0  0  0  0  0  0
    7.5658   -5.3625    0.0000 C   0  0  0  0  0  0  0  0  0  0  0  0
    7.5658   -6.1875    0.0000 C   0  0  0  0  0  0  0  0  0  0  0  0
    8.2802   -6.6000    0.0000 C   0  0  0  0  0  0  0  0  0  0  0  0
    8.2802   -7.4250    0.0000 C   0  0  0  0  0  0  0  0  0  0  0  0
    7.5658   -7.8375    0.0000 C   0  0  0  0  0  0  0  0  0  0  0  0
    7.5658   -8.6625    0.0000 Cl  0  0  0  0  0  0  0  0  0  0  0  0
    6.8513   -7.4250    0.0000 C   0  0  0  0  0  0  0  0  0  0  0  0
    6.8513   -6.6000    0.0000 C   0  0  0  0  0  0  0  0  0  0  0  0
    6.1368   -6.1875    0.0000 C   0  0  0  0  0  0  0  0  0  0  0  0
    4.7079   -3.7125    0.0000 N   0  0  0  0  0  0  0  0  0  0  0  0
    3.9232   -3.9674    0.0000 N   0  0  0  0  0  0  0  0  0  0  0  0
    3.4383   -3.3000    0.0000 C   0  0  0  0  0  0  0  0  0  0  0  0
    2.6133   -3.3000    0.0000 C   0  0  0  0  0  0  0  0  0  0  0  0
    1.7883   -3.3000    0.0000 C   0  0  0  0  0  0  0  0  0  0  0  0
    2.6133   -2.4750    0.0000 F   0  0  0  0  0  0  0  0  0  0  0  0
    2.6133   -4.1250    0.0000 F   0  0  0  0  0  0  0  0  0  0  0  0
    3.9232   -2.6326    0.0000 N   0  0  0  0  0  0  0  0  0  0  0  0
    4.7079   -2.8875    0.0000 C   0  0  0  0  0  0  0  0  0  0  0  0
    5.4223   -2.4750    0.0000 N   0  0  0  0  0  0  0  0  0  0  0  0
  1  2  1  0  0  0  0
  2  3  4  0  0  0  0
  3  4  4  0  0  0  0
  4  5  1  0  0  0  0
  6  5  1  1  0  0  0
  6  7  1  0  0  0  0
  7  8  1  0  0  0  0
  8  9  1  0  0  0  0
  9 10  4  0  0  0  0
 10 11  4  0  0  0  0
 11 12  4  0  0  0  0
 12 13  1  0  0  0  0
 12 14  4  0  0  0  0
 14 15  4  0  0  0  0
  9 15  4  0  0  0  0
 15 16  1  0  0  0  0
  6 16  1  0  0  0  0
  4 17  4  0  0  0  0
 17 18  4  0  0  0  0
 18 19  4  0  0  0  0
 19 20  1  0  0  0  0
 20 21  1  0  0  0  0
 20 22  1  0  0  0  0
 20 23  1  0  0  0  0
 19 24  4  0  0  0  0
 24 25  4  0  0  0  0
 17 25  4  0  0  0  0
 25 26  4  0  0  0  0
  2 26  4  0  0  0  0
M  END
>  <CdId>
439

>  <Mol Weight>
377.82

>  <Formula>
C18H18ClF2N5

>  <Molecule ChEMBL ID>
CHEMBL4751920

>  <Molecule Max Phase>
None

>  <Molecular Weight>
377.83

>  <#RO5 Violations>
0

>  <AlogP>
4.17

>  <Compound Key>
9; DSM426

>  <Standard Type>
IC50

>  <Standard Relation>
'>'

>  <Standard Value>
20000.0

>  <Standard Units>
nM

$$$$

  Mrv2114 03112311372D          

 28 30  0  0  0  0            999 V2000
    0.7075    1.2123    0.0000 C   0  0  0  0  0  0  0  0  0  0  0  0
    1.2595    0.5992    0.0000 N   0  0  0  0  0  0  0  0  0  0  0  0
    1.0046   -0.1854    0.0000 C   0  0  0  0  0  0  0  0  0  0  0  0
    0.1976   -0.3570    0.0000 C   0  0  0  0  0  0  0  0  0  0  0  0
   -0.0573   -1.1416    0.0000 C   0  0  0  0  0  0  0  0  0  0  0  0
   -0.8643   -1.3131    0.0000 C   0  0  0  0  0  0  0  0  0  0  0  0
   -1.1192   -2.0977    0.0000 C   0  0  0  0  0  0  0  0  0  0  0  0
   -1.9262   -2.2693    0.0000 C   0  0  0  0  0  0  0  0  0  0  0  0
   -2.4782   -1.6562    0.0000 C   0  0  0  0  0  0  0  0  0  0  0  0
   -3.2852   -1.8277    0.0000 C   0  0  0  0  0  0  0  0  0  0  0  0
   -3.5402   -2.6123    0.0000 C   0  0  0  0  0  0  0  0  0  0  0  0
   -4.3471   -2.7838    0.0000 C   0  0  0  0  0  0  0  0  0  0  0  0
   -4.8992   -2.1707    0.0000 C   0  0  0  0  0  0  0  0  0  0  0  0
   -4.6442   -1.3861    0.0000 C   0  0  0  0  0  0  0  0  0  0  0  0
   -3.8373   -1.2146    0.0000 C   0  0  0  0  0  0  0  0  0  0  0  0
   -2.2233   -0.8715    0.0000 C   0  0  0  0  0  0  0  0  0  0  0  0
   -1.4163   -0.7000    0.0000 C   0  0  0  0  0  0  0  0  0  0  0  0
    2.0665    0.7707    0.0000 C   0  0  0  0  0  0  0  0  0  0  0  0
    2.3214    1.5553    0.0000 C   0  0  0  0  0  0  0  0  0  0  0  0
    1.8365    2.2228    0.0000 C   0  0  0  0  0  0  0  0  0  0  0  0
    2.3214    2.8902    0.0000 O   0  0  0  0  0  0  0  0  0  0  0  0
    3.1060    2.6353    0.0000 C   0  0  0  0  0  0  0  0  0  0  0  0
    3.8205    3.0478    0.0000 C   0  0  0  0  0  0  0  0  0  0  0  0
    4.5350    2.6353    0.0000 C   0  0  0  0  0  0  0  0  0  0  0  0
    4.5350    1.8103    0.0000 C   0  0  0  0  0  0  0  0  0  0  0  0
    3.8205    1.3978    0.0000 C   0  0  0  0  0  0  0  0  0  0  0  0
    3.1060    1.8103    0.0000 C   0  0  0  0  0  0  0  0  0  0  0  0
    6.5386    0.0000    0.0000 Cl  0  0  0  0  0  0  0  0  0  0  0  0
  1  2  1  0  0  0  0
  2  3  1  0  0  0  0
  3  4  1  0  0  0  0
  4  5  2  0  0  0  0
  5  6  1  0  0  0  0
  6  7  4  0  0  0  0
  7  8  4  0  0  0  0
  8  9  4  0  0  0  0
  9 10  1  0  0  0  0
 10 11  4  0  0  0  0
 11 12  4  0  0  0  0
 12 13  4  0  0  0  0
 13 14  4  0  0  0  0
 14 15  4  0  0  0  0
 10 15  4  0  0  0  0
  9 16  4  0  0  0  0
 16 17  4  0  0  0  0
  6 17  4  0  0  0  0
  2 18  1  0  0  0  0
 18 19  1  0  0  0  0
 19 20  4  0  0  0  0
 20 21  4  0  0  0  0
 21 22  4  0  0  0  0
 22 23  4  0  0  0  0
 23 24  4  0  0  0  0
 24 25  4  0  0  0  0
 25 26  4  0  0  0  0
 26 27  4  0  0  0  0
 19 27  4  0  0  0  0
 22 27  4  0  0  0  0
M  END
>  <CdId>
440

>  <Mol Weight>
389.92

>  <Formula>
C25H24ClNO

>  <Molecule ChEMBL ID>
CHEMBL4086008

>  <Molecule Max Phase>
None

>  <Molecular Weight>
389.93

>  <#RO5 Violations>
1

>  <AlogP>
6.25

>  <Compound Key>
23a

>  <Standard Type>
IC50

>  <Standard Relation>
'='

>  <Standard Value>
10000.0

>  <Standard Units>
nM

$$$$

  Mrv2114 03112311372D          

 28 31  0  0  0  0            999 V2000
    5.4896   -1.6384    0.0000 O   0  0  0  0  0  0  0  0  0  0  0  0
    5.6358   -0.8265    0.0000 C   0  0  0  0  0  0  0  0  0  0  0  0
    5.0058   -0.2939    0.0000 C   0  0  0  0  0  0  0  0  0  0  0  0
    4.2295   -0.5732    0.0000 C   0  0  0  0  0  0  0  0  0  0  0  0
    3.5995   -0.0406    0.0000 C   0  0  0  0  0  0  0  0  0  0  0  0
    3.6601    0.7822    0.0000 N   0  0  0  0  0  0  0  0  0  0  0  0
    2.8963    1.0941    0.0000 O   0  0  0  0  0  0  0  0  0  0  0  0
    2.3637    0.4640    0.0000 C   0  0  0  0  0  0  0  0  0  0  0  0
    2.7983   -0.2372    0.0000 C   0  0  0  0  0  0  0  0  0  0  0  0
    2.4083   -0.9642    0.0000 C   0  0  0  0  0  0  0  0  0  0  0  0
    1.5837   -0.9900    0.0000 C   0  0  0  0  0  0  0  0  0  0  0  0
    1.1491   -0.2887    0.0000 C   0  0  0  0  0  0  0  0  0  0  0  0
    0.3245   -0.3145    0.0000 C   0  0  0  0  0  0  0  0  0  0  0  0
   -0.1101    0.3867    0.0000 C   0  0  0  0  0  0  0  0  0  0  0  0
   -0.9347    0.3610    0.0000 O   0  0  0  0  0  0  0  0  0  0  0  0
    0.2799    1.1137    0.0000 C   0  0  0  0  0  0  0  0  0  0  0  0
    1.1045    1.1395    0.0000 C   0  0  0  0  0  0  0  0  0  0  0  0
    1.5391    0.4383    0.0000 C   0  0  0  0  0  0  0  0  0  0  0  0
    6.4121   -0.5472    0.0000 N   0  0  0  0  0  0  0  0  0  0  0  0
    7.0422   -1.0798    0.0000 C   0  0  0  0  0  0  0  0  0  0  0  0
    7.8184   -0.8005    0.0000 C   0  0  0  0  0  0  0  0  0  0  0  0
    7.9647    0.0115    0.0000 C   0  0  0  0  0  0  0  0  0  0  0  0
    7.3346    0.5441    0.0000 O   0  0  0  0  0  0  0  0  0  0  0  0
    8.7410    0.2908    0.0000 O   0  0  0  0  0  0  0  0  0  0  0  0
    8.4485   -1.3331    0.0000 C   0  0  0  0  0  0  0  0  0  0  0  0
    8.3022   -2.1450    0.0000 C   0  0  0  0  0  0  0  0  0  0  0  0
    7.5259   -2.4243    0.0000 C   0  0  0  0  0  0  0  0  0  0  0  0
    6.8959   -1.8917    0.0000 C   0  0  0  0  0  0  0  0  0  0  0  0
  1  2  2  0  0  0  0
  2  3  1  0  0  0  0
  3  4  1  0  0  0  0
  4  5  1  0  0  0  0
  5  6  4  0  0  0  0
  6  7  4  0  0  0  0
  7  8  4  0  0  0  0
  8  9  4  0  0  0  0
  5  9  4  0  0  0  0
  9 10  4  0  0  0  0
 10 11  4  0  0  0  0
 11 12  4  0  0  0  0
 12 13  4  0  0  0  0
 13 14  4  0  0  0  0
 14 15  1  0  0  0  0
 14 16  4  0  0  0  0
 16 17  4  0  0  0  0
 17 18  4  0  0  0  0
 12 18  4  0  0  0  0
  8 18  4  0  0  0  0
  2 19  1  0  0  0  0
 19 20  1  0  0  0  0
 20 21  2  0  0  0  0
 21 22  1  0  0  0  0
 22 23  2  0  0  0  0
 22 24  1  0  0  0  0
 21 25  1  0  0  0  0
 25 26  1  0  0  0  0
 26 27  1  0  0  0  0
 27 28  1  0  0  0  0
 20 28  1  0  0  0  0
M  END
>  <CdId>
441

>  <Mol Weight>
380.4

>  <Formula>
C21H20N2O5

>  <Molecule ChEMBL ID>
CHEMBL483139

>  <Molecule Max Phase>
None

>  <Molecular Weight>
380.4

>  <#RO5 Violations>
0

>  <AlogP>
3.65

>  <Compound Key>
3b

>  <Standard Type>
IC50

$$$$

  Mrv2114 03112311372D          

 25 27  0  0  0  0            999 V2000
   -2.1434   -6.1875    0.0000 C   0  0  0  0  0  0  0  0  0  0  0  0
   -2.1434   -5.3625    0.0000 C   0  0  0  0  0  0  0  0  0  0  0  0
   -1.4289   -4.9500    0.0000 N   0  0  0  0  0  0  0  0  0  0  0  0
   -0.7145   -5.3625    0.0000 C   0  0  0  0  0  0  0  0  0  0  0  0
   -0.7145   -6.1875    0.0000 C   0  0  0  0  0  0  0  0  0  0  0  0
   -1.4289   -4.1250    0.0000 C   0  0  0  0  0  0  0  0  0  0  0  0
   -0.7145   -3.7125    0.0000 C   0  0  0  0  0  0  0  0  0  0  0  0
   -0.7145   -2.8875    0.0000 C   0  0  0  0  0  0  0  0  0  0  0  0
    0.0000   -2.4750    0.0000 C   0  0  0  0  0  0  0  0  0  0  0  0
    0.7145   -2.8875    0.0000 C   0  0  0  0  0  0  0  0  0  0  0  0
    1.4289   -2.4750    0.0000 N   0  0  0  0  0  0  0  0  0  0  0  0
    1.4289   -1.6500    0.0000 C   0  0  0  0  0  0  0  0  0  0  0  0
    0.7145   -1.2375    0.0000 C   0  0  0  0  0  0  0  0  0  0  0  0
    0.7145   -0.4125    0.0000 C   0  0  0  0  0  0  0  0  0  0  0  0
    1.4289    0.0000    0.0000 N   0  0  0  0  0  0  0  0  0  0  0  0
    2.1434   -0.4125    0.0000 C   0  0  0  0  0  0  0  0  0  0  0  0
    2.8579    0.0000    0.0000 C   0  0  0  0  0  0  0  0  0  0  0  0
    3.5724   -0.4125    0.0000 C   0  0  0  0  0  0  0  0  0  0  0  0
    4.2868   -0.0000    0.0000 Cl  0  0  0  0  0  0  0  0  0  0  0  0
    3.5724   -1.2375    0.0000 C   0  0  0  0  0  0  0  0  0  0  0  0
    2.8579   -1.6500    0.0000 C   0  0  0  0  0  0  0  0  0  0  0  0
    2.1434   -1.2375    0.0000 C   0  0  0  0  0  0  0  0  0  0  0  0
    0.7145   -3.7125    0.0000 C   0  0  0  0  0  0  0  0  0  0  0  0
    0.0000   -4.1250    0.0000 C   0  0  0  0  0  0  0  0  0  0  0  0
    0.0000   -4.9500    0.0000 O   0  0  0  0  0  0  0  0  0  0  0  0
  1  2  1  0  0  0  0
  2  3  1  0  0  0  0
  3  4  1  0  0  0  0
  4  5  1  0  0  0  0
  3  6  1  0  0  0  0
  6  7  1  0  0  0  0
  7  8  4  0  0  0  0
  8  9  4  0  0  0  0
  9 10  4  0  0  0  0
 10 11  1  0  0  0  0
 11 12  1  0  0  0  0
 12 13  4  0  0  0  0
 13 14  4  0  0  0  0
 14 15  4  0  0  0  0
 15 16  4  0  0  0  0
 16 17  4  0  0  0  0
 17 18  4  0  0  0  0
 18 19  1  0  0  0  0
 18 20  4  0  0  0  0
 20 21  4  0  0  0  0
 21 22  4  0  0  0  0
 12 22  4  0  0  0  0
 16 22  4  0  0  0  0
 10 23  4  0  0  0  0
 23 24  4  0  0  0  0
  7 24  4  0  0  0  0
 24 25  1  0  0  0  0
M  END
>  <CdId>
442

>  <Mol Weight>
355.87

>  <Formula>
C20H22ClN3O

>  <Molecule ChEMBL ID>
CHEMBL147587

>  <Molecule Name>
ISOQUINE

>  <Molecule Max Phase>
None

>  <Molecular Weight>
355.87

>  <#RO5 Violations>
1

>  <AlogP>
5.18

>  <Compound Key>
1d

>  <Standard Type>
IC50

>  <Standard Relation>
'='

>  <Standard Value>
13000.0

>  <Standard Units>
nM

$$$$

  Mrv2114 03112311372D          

 35 38  0  0  1  0            999 V2000
    1.1225   -1.8657    0.0000 O   0  0  0  0  0  0  0  0  0  0  0  0
    1.5350   -1.1513    0.0000 C   0  0  0  0  0  0  0  0  0  0  0  0
    2.3600   -1.1513    0.0000 N   0  0  0  0  0  0  0  0  0  0  0  0
    2.7725   -1.8657    0.0000 C   0  0  0  0  0  0  0  0  0  0  0  0
    3.5975   -1.8657    0.0000 C   0  0  1  0  0  0  0  0  0  0  0  0
    4.0100   -1.1513    0.0000 C   0  0  0  0  0  0  0  0  0  0  0  0
    4.8350   -1.1513    0.0000 C   0  0  0  0  0  0  0  0  0  0  0  0
    5.2475   -0.4368    0.0000 C   0  0  0  0  0  0  0  0  0  0  0  0
    6.0725   -0.4368    0.0000 C   0  0  0  0  0  0  0  0  0  0  0  0
    6.4850   -1.1513    0.0000 C   0  0  0  0  0  0  0  0  0  0  0  0
    6.0725   -1.8657    0.0000 C   0  0  0  0  0  0  0  0  0  0  0  0
    5.2475   -1.8657    0.0000 C   0  0  0  0  0  0  0  0  0  0  0  0
    4.0100   -2.5802    0.0000 N   0  0  0  0  0  0  0  0  0  0  0  0
    4.8350   -2.5802    0.0000 C   0  0  0  0  0  0  0  0  0  0  0  0
    5.2475   -3.2947    0.0000 C   0  0  0  0  0  0  0  0  0  0  0  0
    4.8350   -4.0091    0.0000 C   0  0  0  0  0  0  0  0  0  0  0  0
    5.6102   -4.2913    0.0000 O   0  0  0  0  0  0  0  0  0  0  0  0
    4.6917   -4.8216    0.0000 C   0  0  0  0  0  0  0  0  0  0  0  0
    4.5484   -5.6341    0.0000 F   0  0  0  0  0  0  0  0  0  0  0  0
    5.5042   -4.9649    0.0000 F   0  0  0  0  0  0  0  0  0  0  0  0
    3.8792   -4.6784    0.0000 F   0  0  0  0  0  0  0  0  0  0  0  0
    4.0100   -4.0091    0.0000 C   0  0  0  0  0  0  0  0  0  0  0  0
    3.5975   -3.2947    0.0000 C   0  0  0  0  0  0  0  0  0  0  0  0
    1.1225   -0.4368    0.0000 C   0  0  0  0  0  0  0  0  0  0  0  0
    1.8761   -0.1012    0.0000 C   0  0  0  0  0  0  0  0  0  0  0  0
    1.9624    0.7192    0.0000 C   0  0  0  0  0  0  0  0  0  0  0  0
    2.7160    1.0548    0.0000 C   0  0  0  0  0  0  0  0  0  0  0  0
    3.3835    0.5699    0.0000 C   0  0  0  0  0  0  0  0  0  0  0  0
    4.1372    0.9054    0.0000 Cl  0  0  0  0  0  0  0  0  0  0  0  0
    3.2972   -0.2506    0.0000 C   0  0  0  0  0  0  0  0  0  0  0  0
    2.5436   -0.5862    0.0000 C   0  0  0  0  0  0  0  0  0  0  0  0
    0.4550   -0.9217    0.0000 C   0  0  0  0  0  0  0  0  0  0  0  0
   -0.2124   -0.4368    0.0000 C   0  0  0  0  0  0  0  0  0  0  0  0
    0.0425    0.3478    0.0000 C   0  0  0  0  0  0  0  0  0  0  0  0
    0.8675    0.3478    0.0000 C   0  0  0  0  0  0  0  0  0  0  0  0
  1  2  2  0  0  0  0
  2  3  1  0  0  0  0
  3  4  1  0  0  0  0
  5  4  1  1  0  0  0
  5  6  1  0  0  0  0
  6  7  1  0  0  0  0
  7  8  4  0  0  0  0
  8  9  4  0  0  0  0
  9 10  4  0  0  0  0
 10 11  4  0  0  0  0
 11 12  4  0  0  0  0
  7 12  4  0  0  0  0
  5 13  1  0  0  0  0
 13 14  1  0  0  0  0
 14 15  1  0  0  0  0
 15 16  1  0  0  0  0
 16 17  1  0  0  0  0
 16 18  1  0  0  0  0
 18 19  1  0  0  0  0
 18 20  1  0  0  0  0
 18 21  1  0  0  0  0
 16 22  1  0  0  0  0
 22 23  1  0  0  0  0
 13 23  1  0  0  0  0
  2 24  1  0  0  0  0
 24 25  1  0  0  0  0
 25 26  4  0  0  0  0
 26 27  4  0  0  0  0
 27 28  4  0  0  0  0
 28 29  1  0  0  0  0
 28 30  4  0  0  0  0
 30 31  4  0  0  0  0
 25 31  4  0  0  0  0
 24 32  1  0  0  0  0
 32 33  1  0  0  0  0
 33 34  1  0  0  0  0
 34 35  1  0  0  0  0
 24 35  1  0  0  0  0
M  END
>  <CdId>
443

>  <Mol Weight>
509.01

>  <Formula>
C27H32ClF3N2O2

>  <Molecule ChEMBL ID>
CHEMBL4208555

>  <Molecule Max Phase>
None

>  <Molecular Weight>
509.01

>  <#RO5 Violations>
2

>  <AlogP>
5.27

>  <Compound Key>
39

>  <Standard Type>
IC50

>  <Standard Relation>
'='

>  <Standard Value>
11781.0

>  <Standard Units>
nM

$$$$

  Mrv2114 03112311372D          

 29 32  0  0  1  0            999 V2000
    0.7145   -1.2375    0.0000 C   0  0  0  0  0  0  0  0  0  0  0  0
    0.7145   -0.4125    0.0000 C   0  0  2  0  0  0  0  0  0  0  0  0
    0.0000    0.0000    0.0000 C   0  0  0  0  0  0  0  0  0  0  0  0
   -0.7846   -0.2549    0.0000 N   0  0  0  0  0  0  0  0  0  0  0  0
   -1.2695    0.4125    0.0000 C   0  0  0  0  0  0  0  0  0  0  0  0
   -0.7846    1.0799    0.0000 N   0  0  0  0  0  0  0  0  0  0  0  0
   -1.0396    1.8646    0.0000 C   0  0  0  0  0  0  0  0  0  0  0  0
   -1.8465    2.0361    0.0000 C   0  0  0  0  0  0  0  0  0  0  0  0
   -2.1015    2.8207    0.0000 C   0  0  0  0  0  0  0  0  0  0  0  0
   -1.5494    3.4338    0.0000 C   0  0  0  0  0  0  0  0  0  0  0  0
   -0.7425    3.2623    0.0000 C   0  0  0  0  0  0  0  0  0  0  0  0
   -0.4875    2.4777    0.0000 N   0  0  0  0  0  0  0  0  0  0  0  0
    0.0000    0.8250    0.0000 C   0  0  0  0  0  0  0  0  0  0  0  0
    0.7145    1.2375    0.0000 C   0  0  0  0  0  0  0  0  0  0  0  0
    1.4289    0.8250    0.0000 C   0  0  0  0  0  0  0  0  0  0  0  0
    1.4289    0.0000    0.0000 N   0  0  0  0  0  0  0  0  0  0  0  0
    2.1434   -0.4125    0.0000 C   0  0  0  0  0  0  0  0  0  0  0  0
    2.1434   -1.2375    0.0000 O   0  0  0  0  0  0  0  0  0  0  0  0
    2.8579    0.0000    0.0000 C   0  0  0  0  0  0  0  0  0  0  0  0
    2.8579    0.8250    0.0000 C   0  0  0  0  0  0  0  0  0  0  0  0
    3.5724    1.2375    0.0000 C   0  0  0  0  0  0  0  0  0  0  0  0
    4.2868    0.8250    0.0000 C   0  0  0  0  0  0  0  0  0  0  0  0
    4.2868    0.0000    0.0000 C   0  0  0  0  0  0  0  0  0  0  0  0
    5.0013   -0.4125    0.0000 C   0  0  0  0  0  0  0  0  0  0  0  0
    5.7158   -0.8250    0.0000 F   0  0  0  0  0  0  0  0  0  0  0  0
    4.5888   -1.1270    0.0000 F   0  0  0  0  0  0  0  0  0  0  0  0
    5.4138    0.3020    0.0000 F   0  0  0  0  0  0  0  0  0  0  0  0
    3.5724   -0.4125    0.0000 C   0  0  0  0  0  0  0  0  0  0  0  0
    3.5724   -1.2375    0.0000 Cl  0  0  0  0  0  0  0  0  0  0  0  0
  2  1  1  6  0  0  0
  2  3  1  0  0  0  0
  3  4  4  0  0  0  0
  4  5  4  0  0  0  0
  5  6  4  0  0  0  0
  6  7  1  0  0  0  0
  7  8  4  0  0  0  0
  8  9  4  0  0  0  0
  9 10  4  0  0  0  0
 10 11  4  0  0  0  0
 11 12  4  0  0  0  0
  7 12  4  0  0  0  0
  6 13  4  0  0  0  0
  3 13  4  0  0  0  0
 13 14  1  0  0  0  0
 14 15  1  0  0  0  0
 15 16  1  0  0  0  0
  2 16  1  0  0  0  0
 16 17  1  0  0  0  0
 17 18  2  0  0  0  0
 17 19  1  0  0  0  0
 19 20  4  0  0  0  0
 20 21  4  0  0  0  0
 21 22  4  0  0  0  0
 22 23  4  0  0  0  0
 23 24  1  0  0  0  0
 24 25  1  0  0  0  0
 24 26  1  0  0  0  0
 24 27  1  0  0  0  0
 23 28  4  0  0  0  0
 19 28  4  0  0  0  0
 28 29  1  0  0  0  0
M  END
>  <CdId>
444

>  <Mol Weight>
420.82

>  <Formula>
C20H16ClF3N4O

>  <Molecule ChEMBL ID>
CHEMBL3955145

>  <Molecule Max Phase>
None

>  <Molecular Weight>
420.82

>  <#RO5 Violations>
0

>  <AlogP>
4.7

>  <Compound Key>
29

>  <Standard Type>
IC50

>  <Standard Relation>
'>'

>  <Standard Value>
10000.0

>  <Standard Units>
nM

$$$$

  Mrv2114 03112311372D          

 31 35  0  0  0  0            999 V2000
   -2.3700   -7.9354    0.0000 C   0  0  0  0  0  0  0  0  0  0  0  0
   -2.0345   -7.1817    0.0000 C   0  0  0  0  0  0  0  0  0  0  0  0
   -2.4470   -6.4673    0.0000 C   0  0  0  0  0  0  0  0  0  0  0  0
   -1.8949   -5.8542    0.0000 C   0  0  0  0  0  0  0  0  0  0  0  0
   -2.0665   -5.0472    0.0000 C   0  0  0  0  0  0  0  0  0  0  0  0
   -1.1413   -6.1897    0.0000 N   0  0  0  0  0  0  0  0  0  0  0  0
   -0.4268   -5.7772    0.0000 C   0  0  0  0  0  0  0  0  0  0  0  0
   -0.4268   -4.9522    0.0000 C   0  0  0  0  0  0  0  0  0  0  0  0
   -1.1413   -4.5397    0.0000 O   0  0  0  0  0  0  0  0  0  0  0  0
    0.2877   -4.5397    0.0000 N   0  0  0  0  0  0  0  0  0  0  0  0
    1.0413   -4.8753    0.0000 C   0  0  0  0  0  0  0  0  0  0  0  0
    1.5934   -4.2622    0.0000 C   0  0  0  0  0  0  0  0  0  0  0  0
    1.1809   -3.5477    0.0000 C   0  0  0  0  0  0  0  0  0  0  0  0
    0.3739   -3.7192    0.0000 C   0  0  0  0  0  0  0  0  0  0  0  0
   -0.1781   -3.1062    0.0000 C   0  0  0  0  0  0  0  0  0  0  0  0
    0.0768   -2.3215    0.0000 C   0  0  0  0  0  0  0  0  0  0  0  0
    0.8838   -2.1500    0.0000 C   0  0  0  0  0  0  0  0  0  0  0  0
    1.1387   -1.3654    0.0000 C   0  0  0  0  0  0  0  0  0  0  0  0
    0.6538   -0.6979    0.0000 C   0  0  0  0  0  0  0  0  0  0  0  0
    1.1387   -0.0305    0.0000 N   0  0  0  0  0  0  0  0  0  0  0  0
    0.8838    0.7541    0.0000 C   0  0  0  0  0  0  0  0  0  0  0  0
    1.9233   -0.2854    0.0000 C   0  0  0  0  0  0  0  0  0  0  0  0
    2.6378    0.1271    0.0000 N   0  0  0  0  0  0  0  0  0  0  0  0
    3.3523   -0.2854    0.0000 C   0  0  0  0  0  0  0  0  0  0  0  0
    3.3523   -1.1104    0.0000 N   0  0  0  0  0  0  0  0  0  0  0  0
    2.6378   -1.5229    0.0000 C   0  0  0  0  0  0  0  0  0  0  0  0
    2.6378   -2.3479    0.0000 N   0  0  0  0  0  0  0  0  0  0  0  0
    1.9233   -1.1104    0.0000 C   0  0  0  0  0  0  0  0  0  0  0  0
    1.4358   -2.7631    0.0000 C   0  0  0  0  0  0  0  0  0  0  0  0
    2.2428   -2.5916    0.0000 F   0  0  0  0  0  0  0  0  0  0  0  0
   -1.2275   -7.0102    0.0000 N   0  0  0  0  0  0  0  0  0  0  0  0
  1  2  1  0  0  0  0
  2  3  4  0  0  0  0
  3  4  4  0  0  0  0
  4  5  1  0  0  0  0
  4  6  4  0  0  0  0
  6  7  1  0  0  0  0
  7  8  1  0  0  0  0
  8  9  2  0  0  0  0
  8 10  1  0  0  0  0
 10 11  1  0  0  0  0
 11 12  1  0  0  0  0
 12 13  1  0  0  0  0
 13 14  4  0  0  0  0
 10 14  1  0  0  0  0
 14 15  4  0  0  0  0
 15 16  4  0  0  0  0
 16 17  4  0  0  0  0
 17 18  1  0  0  0  0
 18 19  4  0  0  0  0
 19 20  4  0  0  0  0
 20 21  1  0  0  0  0
 20 22  4  0  0  0  0
 22 23  4  0  0  0  0
 23 24  4  0  0  0  0
 24 25  4  0  0  0  0
 25 26  4  0  0  0  0
 26 27  1  0  0  0  0
 26 28  4  0  0  0  0
 18 28  4  0  0  0  0
 22 28  4  0  0  0  0
 17 29  4  0  0  0  0
 13 29  4  0  0  0  0
 29 30  1  0  0  0  0
  6 31  4  0  0  0  0
  2 31  4  0  0  0  0
M  END
>  <CdId>
445

>  <Mol Weight>
419.464

>  <Formula>
C22H22FN7O

>  <Molecule ChEMBL ID>
CHEMBL2441346

>  <Molecule Max Phase>
None

>  <Molecular Weight>
419.46

>  <#RO5 Violations>
0

>  <AlogP>
2.76

>  <Compound Key>
12

>  <Standard Type>
IC50

>  <Standard Relation>
'>'

>  <Standard Value>
25000.0

>  <Standard Units>
nM

$$$$

  Mrv2114 03112311372D          

 42 48  0  0  0  0            999 V2000
    0.0000   -2.4750    0.0000 O   0  0  0  0  0  0  0  0  0  0  0  0
    0.0000   -1.6500    0.0000 C   0  0  0  0  0  0  0  0  0  0  0  0
   -0.7145   -1.2375    0.0000 O   0  0  0  0  0  0  0  0  0  0  0  0
    0.7145   -1.2375    0.0000 C   0  0  0  0  0  0  0  0  0  0  0  0
    0.7145   -0.4125    0.0000 C   0  0  0  0  0  0  0  0  0  0  0  0
    1.4289    0.0000    0.0000 C   0  0  0  0  0  0  0  0  0  0  0  0
    1.4289    0.8250    0.0000 C   0  0  0  0  0  0  0  0  0  0  0  0
    1.4289    1.6500    0.0000 F   0  0  0  0  0  0  0  0  0  0  0  0
    2.2539    0.8250    0.0000 F   0  0  0  0  0  0  0  0  0  0  0  0
    0.6039    0.8250    0.0000 F   0  0  0  0  0  0  0  0  0  0  0  0
    2.1434   -0.4125    0.0000 C   0  0  0  0  0  0  0  0  0  0  0  0
    2.8579    0.0000    0.0000 C   0  0  0  0  0  0  0  0  0  0  0  0
    3.5724   -0.4125    0.0000 C   0  0  0  0  0  0  0  0  0  0  0  0
    4.2868   -0.0000    0.0000 N   0  0  0  0  0  0  0  0  0  0  0  0
    4.2868    0.8250    0.0000 C   0  0  0  0  0  0  0  0  0  0  0  0
    5.0013    1.2375    0.0000 C   0  0  0  0  0  0  0  0  0  0  0  0
    5.7158    0.8250    0.0000 C   0  0  0  0  0  0  0  0  0  0  0  0
    5.9293    1.6219    0.0000 C   0  0  0  0  0  0  0  0  0  0  0  0
    6.7262    1.4084    0.0000 C   0  0  0  0  0  0  0  0  0  0  0  0
    7.4407    1.8209    0.0000 C   0  0  0  0  0  0  0  0  0  0  0  0
    7.5269    2.6413    0.0000 C   0  0  0  0  0  0  0  0  0  0  0  0
    6.9138    3.1934    0.0000 C   0  0  0  0  0  0  0  0  0  0  0  0
    6.1292    2.9384    0.0000 C   0  0  0  0  0  0  0  0  0  0  0  0
    5.9576    2.1315    0.0000 Cl  0  0  0  0  0  0  0  0  0  0  0  0
    5.5161    3.4905    0.0000 C   0  0  0  0  0  0  0  0  0  0  0  0
    5.6876    4.2974    0.0000 N   0  0  0  0  0  0  0  0  0  0  0  0
    6.4722    4.5524    0.0000 C   0  0  0  0  0  0  0  0  0  0  0  0
    7.0853    4.0003    0.0000 C   0  0  0  0  0  0  0  0  0  0  0  0
    7.8699    4.2553    0.0000 Cl  0  0  0  0  0  0  0  0  0  0  0  0
    8.3339    2.8129    0.0000 N   0  0  0  0  0  0  0  0  0  0  0  0
    8.7464    2.0984    0.0000 O   0  0  0  0  0  0  0  0  0  0  0  0
    8.1943    1.4853    0.0000 C   0  0  0  0  0  0  0  0  0  0  0  0
    8.3659    0.6783    0.0000 C   0  0  0  0  0  0  0  0  0  0  0  0
    8.9179    0.0652    0.0000 C   0  0  0  0  0  0  0  0  0  0  0  0
    8.1109   -0.1063    0.0000 C   0  0  0  0  0  0  0  0  0  0  0  0
    6.5127    0.6115    0.0000 C   0  0  0  0  0  0  0  0  0  0  0  0
    5.7158   -0.0000    0.0000 C   0  0  0  0  0  0  0  0  0  0  0  0
    5.0013   -0.4125    0.0000 C   0  0  0  0  0  0  0  0  0  0  0  0
    3.5724   -1.2375    0.0000 C   0  0  0  0  0  0  0  0  0  0  0  0
    2.8579   -1.6500    0.0000 C   0  0  0  0  0  0  0  0  0  0  0  0
    2.1434   -1.2375    0.0000 C   0  0  0  0  0  0  0  0  0  0  0  0
    1.4289   -1.6500    0.0000 N   0  0  0  0  0  0  0  0  0  0  0  0
  1  2  2  0  0  0  0
  2  3  1  0  0  0  0
  2  4  1  0  0  0  0
  4  5  4  0  0  0  0
  5  6  4  0  0  0  0
  6  7  1  0  0  0  0
  7  8  1  0  0  0  0
  7  9  1  0  0  0  0
  7 10  1  0  0  0  0
  6 11  4  0  0  0  0
 11 12  4  0  0  0  0
 12 13  4  0  0  0  0
 13 14  1  0  0  0  0
 14 15  1  0  0  0  0
 15 16  1  0  0  0  0
 16 17  1  0  0  0  0
 17 18  1  0  0  0  0
 18 19  2  0  0  0  0
 19 20  1  0  0  0  0
 20 21  4  0  0  0  0
 21 22  1  0  0  0  0
 22 23  4  0  0  0  0
 23 24  1  0  0  0  0
 23 25  4  0  0  0  0
 25 26  4  0  0  0  0
 26 27  4  0  0  0  0
 27 28  4  0  0  0  0
 22 28  4  0  0  0  0
 28 29  1  0  0  0  0
 21 30  4  0  0  0  0
 30 31  4  0  0  0  0
 31 32  4  0  0  0  0
 20 32  4  0  0  0  0
 32 33  1  0  0  0  0
 33 34  1  0  0  0  0
 34 35  1  0  0  0  0
 33 35  1  0  0  0  0
 19 36  1  0  0  0  0
 17 36  1  0  0  0  0
 17 37  1  0  0  0  0
 37 38  1  0  0  0  0
 14 38  1  0  0  0  0
 13 39  4  0  0  0  0
 39 40  4  0  0  0  0
 40 41  4  0  0  0  0
 11 41  4  0  0  0  0
 41 42  4  0  0  0  0
  4 42  4  0  0  0  0
M  END
>  <CdId>
446

>  <Mol Weight>
615.43

>  <Formula>
C30H23Cl2F3N4O3

>  <Molecule ChEMBL ID>
CHEMBL4862974

>  <Molecule Max Phase>
None

>  <Molecular Weight>
615.44

>  <#RO5 Violations>
2

>  <AlogP>
8.26

>  <Compound Key>
1

>  <Standard Type>
IC50

>  <Standard Relation>
'='

>  <Standard Value>
4200.0

>  <Standard Units>
nM

$$$$

  Mrv2114 03112311372D          

 28 31  0  0  0  0            999 V2000
    5.4896   -1.6384    0.0000 O   0  0  0  0  0  0  0  0  0  0  0  0
    5.6358   -0.8265    0.0000 C   0  0  0  0  0  0  0  0  0  0  0  0
    5.0058   -0.2939    0.0000 C   0  0  0  0  0  0  0  0  0  0  0  0
    4.2295   -0.5732    0.0000 C   0  0  0  0  0  0  0  0  0  0  0  0
    3.5995   -0.0406    0.0000 C   0  0  0  0  0  0  0  0  0  0  0  0
    3.6601    0.7822    0.0000 N   0  0  0  0  0  0  0  0  0  0  0  0
    2.8963    1.0941    0.0000 N   0  0  0  0  0  0  0  0  0  0  0  0
    2.3637    0.4640    0.0000 N   0  0  0  0  0  0  0  0  0  0  0  0
    2.7983   -0.2372    0.0000 C   0  0  0  0  0  0  0  0  0  0  0  0
    2.4083   -0.9642    0.0000 C   0  0  0  0  0  0  0  0  0  0  0  0
    1.5837   -0.9900    0.0000 C   0  0  0  0  0  0  0  0  0  0  0  0
    1.1491   -0.2887    0.0000 C   0  0  0  0  0  0  0  0  0  0  0  0
    0.3245   -0.3145    0.0000 C   0  0  0  0  0  0  0  0  0  0  0  0
   -0.1101    0.3867    0.0000 C   0  0  0  0  0  0  0  0  0  0  0  0
   -0.9347    0.3610    0.0000 O   0  0  0  0  0  0  0  0  0  0  0  0
    0.2799    1.1137    0.0000 C   0  0  0  0  0  0  0  0  0  0  0  0
    1.1045    1.1395    0.0000 C   0  0  0  0  0  0  0  0  0  0  0  0
    1.5391    0.4383    0.0000 C   0  0  0  0  0  0  0  0  0  0  0  0
    6.4121   -0.5472    0.0000 N   0  0  0  0  0  0  0  0  0  0  0  0
    7.0422   -1.0798    0.0000 C   0  0  0  0  0  0  0  0  0  0  0  0
    6.8959   -1.8917    0.0000 C   0  0  0  0  0  0  0  0  0  0  0  0
    7.5259   -2.4243    0.0000 C   0  0  0  0  0  0  0  0  0  0  0  0
    8.3022   -2.1450    0.0000 C   0  0  0  0  0  0  0  0  0  0  0  0
    8.4485   -1.3331    0.0000 C   0  0  0  0  0  0  0  0  0  0  0  0
    7.8184   -0.8005    0.0000 C   0  0  0  0  0  0  0  0  0  0  0  0
    7.9647    0.0115    0.0000 C   0  0  0  0  0  0  0  0  0  0  0  0
    7.3346    0.5441    0.0000 O   0  0  0  0  0  0  0  0  0  0  0  0
    8.7410    0.2908    0.0000 O   0  0  0  0  0  0  0  0  0  0  0  0
  1  2  2  0  0  0  0
  2  3  1  0  0  0  0
  3  4  1  0  0  0  0
  4  5  1  0  0  0  0
  5  6  4  0  0  0  0
  6  7  4  0  0  0  0
  7  8  4  0  0  0  0
  8  9  4  0  0  0  0
  5  9  4  0  0  0  0
  9 10  4  0  0  0  0
 10 11  4  0  0  0  0
 11 12  4  0  0  0  0
 12 13  4  0  0  0  0
 13 14  4  0  0  0  0
 14 15  1  0  0  0  0
 14 16  4  0  0  0  0
 16 17  4  0  0  0  0
 17 18  4  0  0  0  0
 12 18  4  0  0  0  0
  8 18  4  0  0  0  0
  2 19  1  0  0  0  0
 19 20  1  0  0  0  0
 20 21  4  0  0  0  0
 21 22  4  0  0  0  0
 22 23  4  0  0  0  0
 23 24  4  0  0  0  0
 24 25  4  0  0  0  0
 20 25  4  0  0  0  0
 25 26  1  0  0  0  0
 26 27  2  0  0  0  0
 26 28  1  0  0  0  0
M  END
>  <CdId>
447

>  <Mol Weight>
376.372

>  <Formula>
C20H16N4O4

>  <Molecule ChEMBL ID>
CHEMBL521326

>  <Molecule Max Phase>
None

>  <Molecular Weight>
376.37

>  <#RO5 Violations>
0

>  <AlogP>
2.86

>  <Compound Key>
2h

>  <Standard Type>
IC50

$$$$

  Mrv2114 03112311372D          

 29 32  0  0  0  0            999 V2000
    2.6996   -1.0703    0.0000 C   0  0  0  0  0  0  0  0  0  0  0  0
    2.8963   -0.2691    0.0000 N   0  0  0  0  0  0  0  0  0  0  0  0
    3.6601    0.0428    0.0000 N   0  0  0  0  0  0  0  0  0  0  0  0
    3.5995    0.8656    0.0000 C   0  0  0  0  0  0  0  0  0  0  0  0
    4.2295    1.3982    0.0000 C   0  0  0  0  0  0  0  0  0  0  0  0
    5.0058    1.1189    0.0000 C   0  0  0  0  0  0  0  0  0  0  0  0
    5.6358    1.6515    0.0000 C   0  0  0  0  0  0  0  0  0  0  0  0
    5.4896    2.4634    0.0000 O   0  0  0  0  0  0  0  0  0  0  0  0
    6.4121    1.3722    0.0000 N   0  0  0  0  0  0  0  0  0  0  0  0
    7.0422    1.9048    0.0000 C   0  0  0  0  0  0  0  0  0  0  0  0
    6.8959    2.7167    0.0000 C   0  0  0  0  0  0  0  0  0  0  0  0
    7.5259    3.2493    0.0000 C   0  0  0  0  0  0  0  0  0  0  0  0
    8.3022    2.9700    0.0000 C   0  0  0  0  0  0  0  0  0  0  0  0
    8.4485    2.1581    0.0000 C   0  0  0  0  0  0  0  0  0  0  0  0
    7.8184    1.6255    0.0000 C   0  0  0  0  0  0  0  0  0  0  0  0
    7.9647    0.8135    0.0000 C   0  0  0  0  0  0  0  0  0  0  0  0
    7.3346    0.2809    0.0000 O   0  0  0  0  0  0  0  0  0  0  0  0
    8.7410    0.5342    0.0000 O   0  0  0  0  0  0  0  0  0  0  0  0
    2.7983    1.0622    0.0000 C   0  0  0  0  0  0  0  0  0  0  0  0
    2.3637    0.3610    0.0000 C   0  0  0  0  0  0  0  0  0  0  0  0
    1.5391    0.3867    0.0000 C   0  0  0  0  0  0  0  0  0  0  0  0
    1.1045   -0.3145    0.0000 C   0  0  0  0  0  0  0  0  0  0  0  0
    0.2799   -0.2887    0.0000 C   0  0  0  0  0  0  0  0  0  0  0  0
   -0.1101    0.4383    0.0000 C   0  0  0  0  0  0  0  0  0  0  0  0
   -0.9347    0.4640    0.0000 O   0  0  0  0  0  0  0  0  0  0  0  0
    0.3245    1.1395    0.0000 C   0  0  0  0  0  0  0  0  0  0  0  0
    1.1491    1.1137    0.0000 C   0  0  0  0  0  0  0  0  0  0  0  0
    1.5837    1.8150    0.0000 C   0  0  0  0  0  0  0  0  0  0  0  0
    2.4083    1.7892    0.0000 C   0  0  0  0  0  0  0  0  0  0  0  0
  1  2  1  0  0  0  0
  2  3  4  0  0  0  0
  3  4  4  0  0  0  0
  4  5  1  0  0  0  0
  5  6  1  0  0  0  0
  6  7  1  0  0  0  0
  7  8  2  0  0  0  0
  7  9  1  0  0  0  0
  9 10  1  0  0  0  0
 10 11  4  0  0  0  0
 11 12  4  0  0  0  0
 12 13  4  0  0  0  0
 13 14  4  0  0  0  0
 14 15  4  0  0  0  0
 10 15  4  0  0  0  0
 15 16  1  0  0  0  0
 16 17  2  0  0  0  0
 16 18  1  0  0  0  0
  4 19  4  0  0  0  0
 19 20  4  0  0  0  0
  2 20  4  0  0  0  0
 20 21  1  0  0  0  0
 21 22  4  0  0  0  0
 22 23  4  0  0  0  0
 23 24  4  0  0  0  0
 24 25  1  0  0  0  0
 24 26  4  0  0  0  0
 26 27  4  0  0  0  0
 21 27  4  0  0  0  0
 27 28  1  0  0  0  0
 28 29  1  0  0  0  0
 19 29  1  0  0  0  0
M  END
>  <CdId>
448

>  <Mol Weight>
391.427

>  <Formula>
C22H21N3O4

>  <Molecule ChEMBL ID>
CHEMBL483160

>  <Molecule Max Phase>
None

>  <Molecular Weight>
391.43

>  <#RO5 Violations>
0

>  <AlogP>
3.16

>  <Compound Key>
2c

>  <Standard Type>
IC50

$$$$

  Mrv2114 03112311372D          

 21 23  0  0  0  0            999 V2000
    4.0668    4.8229    0.0000 O   0  0  0  0  0  0  0  0  0  0  0  0
    4.7812    4.4104    0.0000 C   0  0  0  0  0  0  0  0  0  0  0  0
    4.7812    3.5854    0.0000 N   0  0  0  0  0  0  0  0  0  0  0  0
    4.0668    3.1729    0.0000 N   0  0  0  0  0  0  0  0  0  0  0  0
    4.0668    2.3479    0.0000 C   0  0  0  0  0  0  0  0  0  0  0  0
    3.3523    1.9354    0.0000 C   0  0  0  0  0  0  0  0  0  0  0  0
    3.3523    1.1104    0.0000 C   0  0  0  0  0  0  0  0  0  0  0  0
    2.6378    0.6979    0.0000 C   0  0  0  0  0  0  0  0  0  0  0  0
    1.9233    1.1104    0.0000 C   0  0  0  0  0  0  0  0  0  0  0  0
    1.1387    0.8555    0.0000 N   0  0  0  0  0  0  0  0  0  0  0  0
    0.6538    1.5229    0.0000 O   0  0  0  0  0  0  0  0  0  0  0  0
    1.1387    2.1904    0.0000 N   0  3  0  0  0  0  0  0  0  0  0  0
    0.8838    2.9750    0.0000 O   0  5  0  0  0  0  0  0  0  0  0  0
    1.9233    1.9354    0.0000 C   0  0  0  0  0  0  0  0  0  0  0  0
    2.6378    2.3479    0.0000 C   0  0  0  0  0  0  0  0  0  0  0  0
    5.4957    4.8229    0.0000 C   0  0  0  0  0  0  0  0  0  0  0  0
    5.4957    5.6479    0.0000 C   0  0  0  0  0  0  0  0  0  0  0  0
    6.2102    6.0604    0.0000 C   0  0  0  0  0  0  0  0  0  0  0  0
    6.9246    5.6479    0.0000 N   0  0  0  0  0  0  0  0  0  0  0  0
    6.9246    4.8229    0.0000 C   0  0  0  0  0  0  0  0  0  0  0  0
    6.2102    4.4104    0.0000 C   0  0  0  0  0  0  0  0  0  0  0  0
  1  2  2  0  0  0  0
  2  3  1  0  0  0  0
  3  4  1  0  0  0  0
  4  5  2  0  0  0  0
  5  6  1  0  0  0  0
  6  7  4  0  0  0  0
  7  8  4  0  0  0  0
  8  9  4  0  0  0  0
  9 10  4  0  0  0  0
 10 11  4  0  0  0  0
 11 12  4  0  0  0  0
 12 13  1  0  0  0  0
 12 14  4  0  0  0  0
  9 14  4  0  0  0  0
 14 15  4  0  0  0  0
  6 15  4  0  0  0  0
  2 16  1  0  0  0  0
 16 17  4  0  0  0  0
 17 18  4  0  0  0  0
 18 19  4  0  0  0  0
 19 20  4  0  0  0  0
 20 21  4  0  0  0  0
 16 21  4  0  0  0  0
M  CHG  2  12   1  13  -1
M  END
>  <CdId>
449

>  <Mol Weight>
283.247

>  <Formula>
C13H9N5O3

>  <Molecule ChEMBL ID>
CHEMBL2338421

>  <Molecule Max Phase>
None

>  <Molecular Weight>
283.25

>  <#RO5 Violations>
0

>  <AlogP>
0.62

>  <Compound Key>
8

>  <Standard Type>
IC50

>  <Standard Relation>
'>'

>  <Standard Value>
20000.0

>  <Standard Units>
nM

$$$$

  Mrv2114 03112311372D          

 30 33  0  0  1  0            999 V2000
    0.7145   -1.2375    0.0000 C   0  0  0  0  0  0  0  0  0  0  0  0
    0.7145   -0.4125    0.0000 C   0  0  2  0  0  0  0  0  0  0  0  0
    0.0000    0.0000    0.0000 C   0  0  0  0  0  0  0  0  0  0  0  0
   -0.7846   -0.2549    0.0000 N   0  0  0  0  0  0  0  0  0  0  0  0
   -1.2695    0.4125    0.0000 C   0  0  0  0  0  0  0  0  0  0  0  0
   -0.7846    1.0799    0.0000 N   0  0  0  0  0  0  0  0  0  0  0  0
   -1.0396    1.8646    0.0000 C   0  0  0  0  0  0  0  0  0  0  0  0
   -1.8465    2.0361    0.0000 C   0  0  0  0  0  0  0  0  0  0  0  0
   -2.1015    2.8207    0.0000 C   0  0  0  0  0  0  0  0  0  0  0  0
   -1.5494    3.4338    0.0000 C   0  0  0  0  0  0  0  0  0  0  0  0
   -1.8044    4.2184    0.0000 F   0  0  0  0  0  0  0  0  0  0  0  0
   -0.7425    3.2623    0.0000 C   0  0  0  0  0  0  0  0  0  0  0  0
   -0.4875    2.4777    0.0000 N   0  0  0  0  0  0  0  0  0  0  0  0
    0.0000    0.8250    0.0000 C   0  0  0  0  0  0  0  0  0  0  0  0
    0.7145    1.2375    0.0000 C   0  0  0  0  0  0  0  0  0  0  0  0
    1.4289    0.8250    0.0000 C   0  0  0  0  0  0  0  0  0  0  0  0
    1.4289    0.0000    0.0000 N   0  0  0  0  0  0  0  0  0  0  0  0
    2.1434   -0.4125    0.0000 C   0  0  0  0  0  0  0  0  0  0  0  0
    2.1434   -1.2375    0.0000 O   0  0  0  0  0  0  0  0  0  0  0  0
    2.8579    0.0000    0.0000 C   0  0  0  0  0  0  0  0  0  0  0  0
    2.8579    0.8250    0.0000 C   0  0  0  0  0  0  0  0  0  0  0  0
    3.5724    1.2375    0.0000 C   0  0  0  0  0  0  0  0  0  0  0  0
    4.2868    0.8250    0.0000 C   0  0  0  0  0  0  0  0  0  0  0  0
    4.2868    0.0000    0.0000 C   0  0  0  0  0  0  0  0  0  0  0  0
    5.0013   -0.4125    0.0000 C   0  0  0  0  0  0  0  0  0  0  0  0
    5.7158   -0.8250    0.0000 F   0  0  0  0  0  0  0  0  0  0  0  0
    4.5888   -1.1270    0.0000 F   0  0  0  0  0  0  0  0  0  0  0  0
    5.4138    0.3020    0.0000 F   0  0  0  0  0  0  0  0  0  0  0  0
    3.5724   -0.4125    0.0000 C   0  0  0  0  0  0  0  0  0  0  0  0
    3.5724   -1.2375    0.0000 Cl  0  0  0  0  0  0  0  0  0  0  0  0
  2  1  1  6  0  0  0
  2  3  1  0  0  0  0
  3  4  4  0  0  0  0
  4  5  4  0  0  0  0
  5  6  4  0  0  0  0
  6  7  1  0  0  0  0
  7  8  4  0  0  0  0
  8  9  4  0  0  0  0
  9 10  4  0  0  0  0
 10 11  1  0  0  0  0
 10 12  4  0  0  0  0
 12 13  4  0  0  0  0
  7 13  4  0  0  0  0
  6 14  4  0  0  0  0
  3 14  4  0  0  0  0
 14 15  1  0  0  0  0
 15 16  1  0  0  0  0
 16 17  1  0  0  0  0
  2 17  1  0  0  0  0
 17 18  1  0  0  0  0
 18 19  2  0  0  0  0
 18 20  1  0  0  0  0
 20 21  4  0  0  0  0
 21 22  4  0  0  0  0
 22 23  4  0  0  0  0
 23 24  4  0  0  0  0
 24 25  1  0  0  0  0
 25 26  1  0  0  0  0
 25 27  1  0  0  0  0
 25 28  1  0  0  0  0
 24 29  4  0  0  0  0
 20 29  4  0  0  0  0
 29 30  1  0  0  0  0
M  END
>  <CdId>
450

>  <Mol Weight>
438.81

>  <Formula>
C20H15ClF4N4O

>  <Molecule ChEMBL ID>
CHEMBL3895947

>  <Molecule Max Phase>
None

>  <Molecular Weight>
438.81

>  <#RO5 Violations>
0

>  <AlogP>
4.84

>  <Compound Key>
1; JNJ 54166060

>  <Standard Type>
IC50

>  <Standard Relation>
'>'

>  <Standard Value>
10000.0

>  <Standard Units>
nM

$$$$

  Mrv2114 03112311372D          

 33 37  0  0  1  0            999 V2000
    3.5724   -2.8875    0.0000 C   0  0  0  0  0  0  0  0  0  0  0  0
    2.8579   -2.4750    0.0000 C   0  0  0  0  0  0  0  0  0  0  0  0
    2.1434   -2.8875    0.0000 C   0  0  0  0  0  0  0  0  0  0  0  0
    1.4289   -2.4750    0.0000 N   0  0  0  0  0  0  0  0  0  0  0  0
    0.7145   -2.8875    0.0000 C   0  0  0  0  0  0  0  0  0  0  0  0
    0.0000   -2.4750    0.0000 C   0  0  1  0  0  0  0  0  0  0  0  0
   -0.7145   -2.8875    0.0000 C   0  0  0  0  0  0  0  0  0  0  0  0
   -1.4289   -2.4750    0.0000 C   0  0  0  0  0  0  0  0  0  0  0  0
   -2.1434   -2.8875    0.0000 C   0  0  0  0  0  0  0  0  0  0  0  0
   -2.8579   -2.4750    0.0000 C   0  0  0  0  0  0  0  0  0  0  0  0
   -2.8579   -1.6500    0.0000 C   0  0  0  0  0  0  0  0  0  0  0  0
   -2.1434   -1.2375    0.0000 C   0  0  0  0  0  0  0  0  0  0  0  0
   -1.4289   -1.6500    0.0000 C   0  0  0  0  0  0  0  0  0  0  0  0
   -0.7145   -1.2375    0.0000 C   0  0  0  0  0  0  0  0  0  0  0  0
    0.0000   -1.6500    0.0000 N   0  0  0  0  0  0  0  0  0  0  0  0
    1.4289   -1.6500    0.0000 C   0  0  1  0  0  0  0  0  0  0  0  0
    0.7145   -1.2375    0.0000 C   0  0  0  0  0  0  0  0  0  0  0  0
    0.7145   -0.4125    0.0000 C   0  0  0  0  0  0  0  0  0  0  0  0
    1.4289    0.0000    0.0000 C   0  0  0  0  0  0  0  0  0  0  0  0
    2.1434   -0.4125    0.0000 C   0  0  0  0  0  0  0  0  0  0  0  0
    2.8579    0.0000    0.0000 C   0  0  0  0  0  0  0  0  0  0  0  0
    3.5724   -0.4125    0.0000 C   0  0  0  0  0  0  0  0  0  0  0  0
    3.5724   -1.2375    0.0000 C   0  0  0  0  0  0  0  0  0  0  0  0
    2.8579   -1.6500    0.0000 N   0  0  0  0  0  0  0  0  0  0  0  0
    2.1434   -1.2375    0.0000 C   0  0  0  0  0  0  0  0  0  0  0  0
    4.2868   -2.4750    0.0000 C   0  0  0  0  0  0  0  0  0  0  0  0
    4.2868   -1.6500    0.0000 N   0  0  0  0  0  0  0  0  0  0  0  0
    5.0013   -1.2375    0.0000 C   0  0  0  0  0  0  0  0  0  0  0  0
    5.0013   -0.4125    0.0000 C   0  0  0  0  0  0  0  0  0  0  0  0
    5.7158   -0.0000    0.0000 C   0  0  0  0  0  0  0  0  0  0  0  0
    6.4302   -0.4125    0.0000 O   0  0  0  0  0  0  0  0  0  0  0  0
    6.4302   -1.2375    0.0000 C   0  0  0  0  0  0  0  0  0  0  0  0
    5.7158   -1.6500    0.0000 C   0  0  0  0  0  0  0  0  0  0  0  0
  1  2  2  0  0  0  0
  2  3  1  0  0  0  0
  3  4  1  0  0  0  0
  4  5  1  0  0  0  0
  6  5  1  1  0  0  0
  6  7  1  0  0  0  0
  7  8  1  0  0  0  0
  8  9  4  0  0  0  0
  9 10  4  0  0  0  0
 10 11  4  0  0  0  0
 11 12  4  0  0  0  0
 12 13  4  0  0  0  0
  8 13  4  0  0  0  0
 13 14  1  0  0  0  0
 14 15  1  0  0  0  0
  6 15  1  0  0  0  0
 16  4  1  1  0  0  0
 16 17  1  0  0  0  0
 17 18  1  0  0  0  0
 18 19  1  0  0  0  0
 19 20  1  0  0  0  0
 20 21  4  0  0  0  0
 21 22  4  0  0  0  0
 22 23  4  0  0  0  0
 23 24  4  0  0  0  0
 24 25  4  0  0  0  0
 20 25  4  0  0  0  0
 16 25  1  0  0  0  0
  1 26  1  4  0  0  0
 26 27  1  0  0  0  0
 27 28  1  0  0  0  0
 28 29  1  0  0  0  0
 29 30  1  0  0  0  0
 30 31  1  0  0  0  0
 31 32  1  0  0  0  0
 32 33  1  0  0  0  0
 28 33  1  0  0  0  0
M  END
>  <CdId>
451

>  <Mol Weight>
446.639

>  <Formula>
C28H38N4O

>  <Molecule ChEMBL ID>
CHEMBL4075205

>  <Molecule Max Phase>
None

>  <Molecular Weight>
446.64

>  <#RO5 Violations>
0

>  <AlogP>
3.8

>  <Compound Key>
46c

>  <Standard Type>
IC50

>  <Standard Relation>
'<'

>  <Standard Value>
5000.0

>  <Standard Units>
nM

$$$$

  Mrv2114 03112311372D          

 27 30  0  0  1  0            999 V2000
   -1.2288    1.7457    0.0000 C   0  0  0  0  0  0  0  0  0  0  0  0
   -0.8932    0.9920    0.0000 C   0  0  0  0  0  0  0  0  0  0  0  0
   -0.0862    0.8205    0.0000 C   0  0  0  0  0  0  0  0  0  0  0  0
    0.0000    0.0000    0.0000 C   0  0  0  0  0  0  0  0  0  0  0  0
    0.7145   -0.4125    0.0000 C   0  0  1  0  0  0  0  0  0  0  0  0
    1.4289    0.0000    0.0000 C   0  0  0  0  0  0  0  0  0  0  0  0
    2.1434   -0.4125    0.0000 C   0  0  1  0  0  0  0  0  0  0  0  0
    2.8579    0.0000    0.0000 C   0  0  1  0  0  0  0  0  0  0  0  0
    2.8579    0.8250    0.0000 C   0  0  0  0  0  0  0  0  0  0  0  0
    3.5724    1.2375    0.0000 F   0  0  0  0  0  0  0  0  0  0  0  0
    3.5724   -0.4125    0.0000 S   0  0  0  0  0  0  0  0  0  0  0  0
    3.5724   -1.2375    0.0000 C   0  0  0  0  0  0  0  0  0  0  0  0
    4.2868   -1.6500    0.0000 N   0  0  0  0  0  0  0  0  0  0  0  0
    2.8579   -1.6500    0.0000 N   0  0  0  0  0  0  0  0  0  0  0  0
    2.1434   -1.2375    0.0000 C   0  0  2  0  0  0  0  0  0  0  0  0
    2.1434   -2.0625    0.0000 C   0  0  0  0  0  0  0  0  0  0  0  0
    2.8579   -2.4750    0.0000 C   0  0  0  0  0  0  0  0  0  0  0  0
    2.8579   -3.3000    0.0000 C   0  0  0  0  0  0  0  0  0  0  0  0
    2.1434   -3.7125    0.0000 C   0  0  0  0  0  0  0  0  0  0  0  0
    2.1434   -4.5375    0.0000 F   0  0  0  0  0  0  0  0  0  0  0  0
    1.4289   -3.3000    0.0000 C   0  0  0  0  0  0  0  0  0  0  0  0
    1.4289   -2.4750    0.0000 C   0  0  0  0  0  0  0  0  0  0  0  0
    0.7145   -2.0625    0.0000 F   0  0  0  0  0  0  0  0  0  0  0  0
    1.4289   -1.6500    0.0000 C   0  0  0  0  0  0  0  0  0  0  0  0
    0.7145   -1.2375    0.0000 O   0  0  0  0  0  0  0  0  0  0  0  0
   -0.7537   -0.3356    0.0000 O   0  0  0  0  0  0  0  0  0  0  0  0
   -1.3057    0.2775    0.0000 N   0  0  0  0  0  0  0  0  0  0  0  0
  1  2  1  0  0  0  0
  2  3  4  0  0  0  0
  3  4  4  0  0  0  0
  5  4  1  1  0  0  0
  5  6  1  0  0  0  0
  7  6  1  1  0  0  0
  7  8  1  0  0  0  0
  8  9  1  1  0  0  0
  9 10  1  0  0  0  0
  8 11  1  0  0  0  0
 11 12  1  0  0  0  0
 12 13  1  0  0  0  0
 12 14  2  0  0  0  0
 15 14  1  0  0  0  0
  7 15  1  0  0  0  0
 15 16  1  6  0  0  0
 16 17  4  0  0  0  0
 17 18  4  0  0  0  0
 18 19  4  0  0  0  0
 19 20  1  0  0  0  0
 19 21  4  0  0  0  0
 21 22  4  0  0  0  0
 16 22  4  0  0  0  0
 22 23  1  0  0  0  0
 15 24  1  0  0  0  0
 24 25  1  0  0  0  0
  5 25  1  0  0  0  0
  4 26  4  0  0  0  0
 26 27  4  0  0  0  0
  2 27  4  0  0  0  0
M  END
>  <CdId>
452

>  <Mol Weight>
397.42

>  <Formula>
C18H18F3N3O2S

>  <Molecule ChEMBL ID>
CHEMBL3422245

>  <Molecule Max Phase>
None

>  <Molecular Weight>
397.42

>  <#RO5 Violations>
0

>  <AlogP>
3.63

>  <Compound Key>
13

>  <Standard Type>
IC50

>  <Standard Relation>
'>'

>  <Standard Value>
30000.0

>  <Standard Units>
nM

$$$$

  Mrv2114 03112311372D          

 51 56  0  0  1  0            999 V2000
   -0.8543   -2.8347    0.0000 C   0  0  0  0  0  0  0  0  0  0  0  0
   -1.4063   -2.2216    0.0000 O   0  0  0  0  0  0  0  0  0  0  0  0
   -1.1514   -1.4370    0.0000 C   0  0  0  0  0  0  0  0  0  0  0  0
   -1.7034   -0.8239    0.0000 C   0  0  0  0  0  0  0  0  0  0  0  0
   -1.4485   -0.0392    0.0000 C   0  0  0  0  0  0  0  0  0  0  0  0
   -0.6415    0.1323    0.0000 C   0  0  0  0  0  0  0  0  0  0  0  0
   -0.3866    0.9169    0.0000 C   0  0  0  0  0  0  0  0  0  0  0  0
    0.4204    1.0884    0.0000 C   0  0  0  0  0  0  0  0  0  0  0  0
    0.6754    1.8731    0.0000 C   0  0  0  0  0  0  0  0  0  0  0  0
    0.1233    2.4861    0.0000 C   0  0  0  0  0  0  0  0  0  0  0  0
    0.3783    3.2708    0.0000 C   0  0  0  0  0  0  0  0  0  0  0  0
    1.1852    3.4423    0.0000 O   0  0  0  0  0  0  0  0  0  0  0  0
   -0.1738    3.8839    0.0000 O   0  0  0  0  0  0  0  0  0  0  0  0
   -0.6836    2.3146    0.0000 C   0  0  0  0  0  0  0  0  0  0  0  0
   -0.9386    1.5300    0.0000 C   0  0  0  0  0  0  0  0  0  0  0  0
   -1.7456    1.3585    0.0000 C   0  0  0  0  0  0  0  0  0  0  0  0
   -0.0895   -0.4808    0.0000 C   0  0  0  0  0  0  0  0  0  0  0  0
   -0.3444   -1.2654    0.0000 C   0  0  0  0  0  0  0  0  0  0  0  0
    0.2076   -1.8785    0.0000 C   0  0  0  0  0  0  0  0  0  0  0  0
   -0.0473   -2.6631    0.0000 N   0  0  0  0  0  0  0  0  0  0  0  0
    0.5047   -3.2762    0.0000 C   0  0  0  0  0  0  0  0  0  0  0  0
    1.3117   -3.1047    0.0000 C   0  0  0  0  0  0  0  0  0  0  0  0
    1.8637   -3.7178    0.0000 C   0  0  0  0  0  0  0  0  0  0  0  0
    2.4158   -4.3309    0.0000 F   0  0  0  0  0  0  0  0  0  0  0  0
    1.2506   -4.2698    0.0000 F   0  0  0  0  0  0  0  0  0  0  0  0
    2.4768   -3.1658    0.0000 F   0  0  0  0  0  0  0  0  0  0  0  0
    1.5666   -2.3201    0.0000 C   0  0  0  0  0  0  0  0  0  0  0  0
    1.0146   -1.7070    0.0000 C   0  0  0  0  0  0  0  0  0  0  0  0
    1.2695   -0.9224    0.0000 C   0  0  2  0  0  0  0  0  0  0  0  0
    0.7846   -0.2549    0.0000 C   0  0  0  0  0  0  0  0  0  0  0  0
    1.2695    0.4125    0.0000 C   0  0  0  0  0  0  0  0  0  0  0  0
    2.0542    0.1576    0.0000 C   0  0  1  0  0  0  0  0  0  0  0  0
    2.8388    0.4125    0.0000 C   0  0  1  0  0  0  0  0  0  0  0  0
    3.0937    1.1971    0.0000 C   0  0  0  0  0  0  0  0  0  0  0  0
    2.5417    1.8102    0.0000 C   0  0  0  0  0  0  0  0  0  0  0  0
    2.7966    2.5948    0.0000 C   0  0  0  0  0  0  0  0  0  0  0  0
    2.2446    3.2079    0.0000 C   0  0  0  0  0  0  0  0  0  0  0  0
    1.6926    3.8210    0.0000 F   0  0  0  0  0  0  0  0  0  0  0  0
    2.8577    3.7600    0.0000 F   0  0  0  0  0  0  0  0  0  0  0  0
    1.6315    2.6559    0.0000 F   0  0  0  0  0  0  0  0  0  0  0  0
    3.6036    2.7664    0.0000 C   0  0  0  0  0  0  0  0  0  0  0  0
    4.1556    2.1533    0.0000 C   0  0  0  0  0  0  0  0  0  0  0  0
    4.9626    2.3248    0.0000 C   0  0  0  0  0  0  0  0  0  0  0  0
    5.7696    2.4963    0.0000 F   0  0  0  0  0  0  0  0  0  0  0  0
    5.1341    1.5178    0.0000 F   0  0  0  0  0  0  0  0  0  0  0  0
    4.7911    3.1318    0.0000 F   0  0  0  0  0  0  0  0  0  0  0  0
    3.9007    1.3686    0.0000 C   0  0  0  0  0  0  0  0  0  0  0  0
    3.3237   -0.2549    0.0000 O   0  0  0  0  0  0  0  0  0  0  0  0
    2.8388   -0.9224    0.0000 C   0  0  0  0  0  0  0  0  0  0  0  0
    3.0937   -1.7070    0.0000 O   0  0  0  0  0  0  0  0  0  0  0  0
    2.0542   -0.6674    0.0000 N   0  0  0  0  0  0  0  0  0  0  0  0
  1  2  1  0  0  0  0
  2  3  1  0  0  0  0
  3  4  4  0  0  0  0
  4  5  4  0  0  0  0
  5  6  4  0  0  0  0
  6  7  1  0  0  0  0
  7  8  4  0  0  0  0
  8  9  4  0  0  0  0
  9 10  4  0  0  0  0
 10 11  1  0  0  0  0
 11 12  2  0  0  0  0
 11 13  1  0  0  0  0
 10 14  4  0  0  0  0
 14 15  4  0  0  0  0
  7 15  4  0  0  0  0
 15 16  1  0  0  0  0
  6 17  4  0  0  0  0
 17 18  4  0  0  0  0
  3 18  4  0  0  0  0
 18 19  1  0  0  0  0
 19 20  4  0  0  0  0
 20 21  4  0  0  0  0
 21 22  4  0  0  0  0
 22 23  1  0  0  0  0
 23 24  1  0  0  0  0
 23 25  1  0  0  0  0
 23 26  1  0  0  0  0
 22 27  4  0  0  0  0
 27 28  4  0  0  0  0
 19 28  4  0  0  0  0
 29 28  1  6  0  0  0
 29 30  1  0  0  0  0
 30 31  1  0  0  0  0
 32 31  1  0  0  0  0
 32 33  1  0  0  0  0
 33 34  1  1  0  0  0
 34 35  4  0  0  0  0
 35 36  4  0  0  0  0
 36 37  1  0  0  0  0
 37 38  1  0  0  0  0
 37 39  1  0  0  0  0
 37 40  1  0  0  0  0
 36 41  4  0  0  0  0
 41 42  4  0  0  0  0
 42 43  1  0  0  0  0
 43 44  1  0  0  0  0
 43 45  1  0  0  0  0
 43 46  1  0  0  0  0
 42 47  4  0  0  0  0
 34 47  4  0  0  0  0
 33 48  1  0  0  0  0
 48 49  1  0  0  0  0
 49 50  2  0  0  0  0
 49 51  1  0  0  0  0
 29 51  1  0  0  0  0
 32 51  1  1  0  0  0
M  END
>  <CdId>
453

>  <Mol Weight>
724.58

>  <Formula>
C35H25F9N2O5

>  <Molecule ChEMBL ID>
CHEMBL4865918

>  <Molecule Max Phase>
None

>  <Molecular Weight>
724.58

>  <#RO5 Violations>
2

>  <AlogP>
9.88

>  <Compound Key>
83

>  <Standard Type>
IC50

>  <Standard Relation>
'='

>  <Standard Value>
4000.0

>  <Standard Units>
nM

$$$$

  Mrv2114 03112311372D          

 31 34  0  0  1  0            999 V2000
    2.7845    0.6979    0.0000 C   0  0  0  0  0  0  0  0  0  0  0  0
    2.0701    1.1104    0.0000 N   0  0  0  0  0  0  0  0  0  0  0  0
    1.3556    0.6979    0.0000 C   0  0  0  0  0  0  0  0  0  0  0  0
    1.3556   -0.1271    0.0000 O   0  0  0  0  0  0  0  0  0  0  0  0
    0.6411    1.1104    0.0000 C   0  0  0  0  0  0  0  0  0  0  0  0
    0.6411    1.9354    0.0000 C   0  0  0  0  0  0  0  0  0  0  0  0
   -0.1435    2.1904    0.0000 C   0  0  0  0  0  0  0  0  0  0  0  0
   -0.6284    1.5229    0.0000 C   0  0  0  0  0  0  0  0  0  0  0  0
   -1.4534    1.5229    0.0000 N   0  0  0  0  0  0  0  0  0  0  0  0
   -1.8659    2.2374    0.0000 C   0  0  0  0  0  0  0  0  0  0  0  0
   -2.6909    2.2374    0.0000 C   0  0  0  0  0  0  0  0  0  0  0  0
   -3.1034    1.5229    0.0000 C   0  0  0  0  0  0  0  0  0  0  0  0
   -2.6909    0.8085    0.0000 C   0  0  1  0  0  0  0  0  0  0  0  0
   -3.4662    0.5263    0.0000 C   0  0  0  0  0  0  0  0  0  0  0  0
   -2.5477   -0.0040    0.0000 N   0  0  0  0  0  0  0  0  0  0  0  0
   -1.8659    0.8085    0.0000 C   0  0  0  0  0  0  0  0  0  0  0  0
   -0.1435    0.8555    0.0000 N   0  0  0  0  0  0  0  0  0  0  0  0
   -0.3984    0.0709    0.0000 C   0  0  0  0  0  0  0  0  0  0  0  0
    0.1536   -0.5422    0.0000 C   0  0  0  0  0  0  0  0  0  0  0  0
    0.9606   -0.3707    0.0000 C   0  0  0  0  0  0  0  0  0  0  0  0
    1.5126   -0.9838    0.0000 C   0  0  0  0  0  0  0  0  0  0  0  0
    2.3196   -0.8123    0.0000 F   0  0  0  0  0  0  0  0  0  0  0  0
    1.2577   -1.7684    0.0000 C   0  0  0  0  0  0  0  0  0  0  0  0
    0.4507   -1.9399    0.0000 C   0  0  0  0  0  0  0  0  0  0  0  0
   -0.1014   -1.3268    0.0000 C   0  0  0  0  0  0  0  0  0  0  0  0
   -0.9083   -1.4984    0.0000 C   0  0  0  0  0  0  0  0  0  0  0  0
   -1.7153   -1.6699    0.0000 N   0  0  0  0  0  0  0  0  0  0  0  0
    1.3556    2.3479    0.0000 N   0  0  0  0  0  0  0  0  0  0  0  0
    1.3556    3.1729    0.0000 C   0  0  0  0  0  0  0  0  0  0  0  0
    2.0701    1.9354    0.0000 C   0  0  0  0  0  0  0  0  0  0  0  0
    2.7845    2.3479    0.0000 O   0  0  0  0  0  0  0  0  0  0  0  0
  1  2  1  0  0  0  0
  2  3  4  0  0  0  0
  3  4  2  0  0  0  0
  3  5  4  0  0  0  0
  5  6  4  0  0  0  0
  6  7  4  0  0  0  0
  7  8  4  0  0  0  0
  8  9  1  0  0  0  0
  9 10  1  0  0  0  0
 10 11  1  0  0  0  0
 11 12  1  0  0  0  0
 13 12  1  0  0  0  0
 13 14  1  1  0  0  0
 13 15  1  6  0  0  0
 13 16  1  0  0  0  0
  9 16  1  0  0  0  0
  8 17  4  0  0  0  0
  5 17  4  0  0  0  0
 17 18  1  0  0  0  0
 18 19  1  0  0  0  0
 19 20  4  0  0  0  0
 20 21  4  0  0  0  0
 21 22  1  0  0  0  0
 21 23  4  0  0  0  0
 23 24  4  0  0  0  0
 24 25  4  0  0  0  0
 19 25  4  0  0  0  0
 25 26  1  0  0  0  0
 26 27  3  0  0  0  0
  6 28  4  0  0  0  0
 28 29  1  0  0  0  0
 28 30  4  0  0  0  0
  2 30  4  0  0  0  0
 30 31  2  0  0  0  0
M  END
>  <CdId>
454

>  <Mol Weight>
424.48

>  <Formula>
C22H25FN6O2

>  <Molecule ChEMBL ID>
CHEMBL1819090

>  <Molecule Max Phase>
None

>  <Molecular Weight>
424.48

>  <#RO5 Violations>
0

>  <AlogP>
1.42

>  <Compound Key>
DSR-12727, 7a

>  <Standard Type>
IC50

>  <Standard Relation>
'>'

>  <Standard Value>
50000.0

>  <Standard Units>
nM

$$$$

  Mrv2114 03112311372D          

 34 37  0  0  1  0            999 V2000
    2.1434   -3.7125    0.0000 C   0  0  0  0  0  0  0  0  0  0  0  0
    2.8579   -4.1250    0.0000 O   0  0  0  0  0  0  0  0  0  0  0  0
    2.8579   -4.9500    0.0000 C   0  0  0  0  0  0  0  0  0  0  0  0
    3.5724   -5.3625    0.0000 C   0  0  0  0  0  0  0  0  0  0  0  0
    3.5724   -6.1875    0.0000 C   0  0  0  0  0  0  0  0  0  0  0  0
    4.2868   -6.6000    0.0000 C   0  0  0  0  0  0  0  0  0  0  0  0
    5.0013   -6.1875    0.0000 C   0  0  0  0  0  0  0  0  0  0  0  0
    5.7158   -6.6000    0.0000 N   0  0  0  0  0  0  0  0  0  0  0  0
    5.7158   -7.4250    0.0000 C   0  0  0  0  0  0  0  0  0  0  0  0
    5.0013   -7.8375    0.0000 C   0  0  0  0  0  0  0  0  0  0  0  0
    5.0013   -8.6625    0.0000 C   0  0  0  0  0  0  0  0  0  0  0  0
    5.7158   -9.0750    0.0000 C   0  0  0  0  0  0  0  0  0  0  0  0
    5.7158   -9.9000    0.0000 C   0  0  0  0  0  0  0  0  0  0  0  0
    5.0013  -10.3125    0.0000 C   0  0  0  0  0  0  0  0  0  0  0  0
    5.0013  -11.1375    0.0000 N   0  0  0  0  0  0  0  0  0  0  0  0
    5.7158  -11.5500    0.0000 C   0  0  0  0  0  0  0  0  0  0  0  0
    5.7158  -12.3750    0.0000 C   0  0  1  0  0  0  0  0  0  0  0  0
    6.4302  -12.7875    0.0000 C   0  0  0  0  0  0  0  0  0  0  0  0
    5.0013  -12.7875    0.0000 N   0  0  0  0  0  0  0  0  0  0  0  0
    5.0013  -13.6125    0.0000 C   0  0  0  0  0  0  0  0  0  0  0  0
    4.2868  -12.3750    0.0000 C   0  0  1  0  0  0  0  0  0  0  0  0
    3.5724  -12.7875    0.0000 C   0  0  0  0  0  0  0  0  0  0  0  0
    4.2868  -11.5500    0.0000 C   0  0  0  0  0  0  0  0  0  0  0  0
    4.2868   -9.9000    0.0000 C   0  0  0  0  0  0  0  0  0  0  0  0
    4.2868   -9.0750    0.0000 C   0  0  0  0  0  0  0  0  0  0  0  0
    4.2868   -7.4250    0.0000 C   0  0  0  0  0  0  0  0  0  0  0  0
    3.5724   -7.8375    0.0000 C   0  0  0  0  0  0  0  0  0  0  0  0
    2.8579   -6.6000    0.0000 C   0  0  0  0  0  0  0  0  0  0  0  0
    2.1434   -6.1875    0.0000 C   0  0  0  0  0  0  0  0  0  0  0  0
    1.4289   -6.6000    0.0000 F   0  0  0  0  0  0  0  0  0  0  0  0
    2.1434   -5.3625    0.0000 C   0  0  0  0  0  0  0  0  0  0  0  0
    1.4289   -4.9500    0.0000 C   0  0  0  0  0  0  0  0  0  0  0  0
    0.7145   -5.3625    0.0000 N   0  0  0  0  0  0  0  0  0  0  0  0
    1.4289   -4.1250    0.0000 O   0  0  0  0  0  0  0  0  0  0  0  0
  1  2  1  0  0  0  0
  2  3  1  0  0  0  0
  3  4  4  0  0  0  0
  4  5  4  0  0  0  0
  5  6  1  0  0  0  0
  6  7  4  0  0  0  0
  7  8  4  0  0  0  0
  8  9  4  0  0  0  0
  9 10  4  0  0  0  0
 10 11  1  0  0  0  0
 11 12  4  0  0  0  0
 12 13  4  0  0  0  0
 13 14  4  0  0  0  0
 14 15  1  0  0  0  0
 15 16  1  0  0  0  0
 17 16  1  0  0  0  0
 17 18  1  1  0  0  0
 17 19  1  0  0  0  0
 19 20  1  0  0  0  0
 21 19  1  0  0  0  0
 21 22  1  1  0  0  0
 21 23  1  0  0  0  0
 15 23  1  0  0  0  0
 14 24  4  0  0  0  0
 24 25  4  0  0  0  0
 11 25  4  0  0  0  0
 10 26  4  0  0  0  0
  6 26  4  0  0  0  0
 26 27  1  0  0  0  0
  5 28  4  0  0  0  0
 28 29  4  0  0  0  0
 29 30  1  0  0  0  0
 29 31  4  0  0  0  0
  3 31  4  0  0  0  0
 31 32  1  0  0  0  0
 32 33  1  0  0  0  0
 32 34  2  0  0  0  0
M  END
>  <CdId>
455

>  <Mol Weight>
462.569

>  <Formula>
C27H31FN4O2

>  <Molecule ChEMBL ID>
CHEMBL4434717

>  <Molecule Max Phase>
None

>  <Molecular Weight>
462.57

>  <#RO5 Violations>
0

>  <AlogP>
4.5

>  <Compound Key>
26c

>  <Standard Type>
IC50

>  <Standard Relation>
'>'

>  <Standard Value>
30000.0

>  <Standard Units>
nM

$$$$

  Mrv2114 03112311372D          

 25 29  0  0  0  0            999 V2000
    6.3850   -0.3660    0.0000 C   0  0  0  0  0  0  0  0  0  0  0  0
    5.9950    0.3610    0.0000 O   0  0  0  0  0  0  0  0  0  0  0  0
    5.1704    0.3867    0.0000 C   0  0  0  0  0  0  0  0  0  0  0  0
    4.7804    1.1137    0.0000 C   0  0  0  0  0  0  0  0  0  0  0  0
    5.2150    1.8150    0.0000 C   0  0  0  0  0  0  0  0  0  0  0  0
    4.8250    2.5420    0.0000 C   0  0  0  0  0  0  0  0  0  0  0  0
    5.2596    3.2432    0.0000 C   0  0  0  0  0  0  0  0  0  0  0  0
    6.0842    3.2175    0.0000 C   0  0  0  0  0  0  0  0  0  0  0  0
    6.4742    2.4905    0.0000 C   0  0  0  0  0  0  0  0  0  0  0  0
    6.0396    1.7892    0.0000 C   0  0  0  0  0  0  0  0  0  0  0  0
    7.2862    2.6367    0.0000 O   0  0  0  0  0  0  0  0  0  0  0  0
    7.3980    3.4541    0.0000 C   0  0  0  0  0  0  0  0  0  0  0  0
    6.6551    3.8130    0.0000 O   0  0  0  0  0  0  0  0  0  0  0  0
    3.9558    1.1395    0.0000 O   0  0  0  0  0  0  0  0  0  0  0  0
    3.5212    0.4383    0.0000 C   0  0  0  0  0  0  0  0  0  0  0  0
    3.9112   -0.2887    0.0000 C   0  0  0  0  0  0  0  0  0  0  0  0
    3.4766   -0.9900    0.0000 C   0  0  0  0  0  0  0  0  0  0  0  0
    2.6520   -0.9642    0.0000 C   0  0  0  0  0  0  0  0  0  0  0  0
    2.2620   -0.2372    0.0000 C   0  0  0  0  0  0  0  0  0  0  0  0
    1.4608   -0.0406    0.0000 O   0  0  0  0  0  0  0  0  0  0  0  0
    1.4002    0.7822    0.0000 C   0  0  0  0  0  0  0  0  0  0  0  0
    2.1640    1.0941    0.0000 C   0  0  0  0  0  0  0  0  0  0  0  0
    2.6966    0.4640    0.0000 C   0  0  0  0  0  0  0  0  0  0  0  0
    4.7358   -0.3145    0.0000 C   0  0  0  0  0  0  0  0  0  0  0  0
    5.1258   -1.0415    0.0000 O   0  0  0  0  0  0  0  0  0  0  0  0
  1  2  1  0  0  0  0
  2  3  1  0  0  0  0
  3  4  4  0  0  0  0
  4  5  1  0  0  0  0
  5  6  4  0  0  0  0
  6  7  4  0  0  0  0
  7  8  4  0  0  0  0
  8  9  4  0  0  0  0
  9 10  4  0  0  0  0
  5 10  4  0  0  0  0
  9 11  1  0  0  0  0
 11 12  1  0  0  0  0
 12 13  1  0  0  0  0
  8 13  1  0  0  0  0
  4 14  4  0  0  0  0
 14 15  4  0  0  0  0
 15 16  4  0  0  0  0
 16 17  4  0  0  0  0
 17 18  4  0  0  0  0
 18 19  4  0  0  0  0
 19 20  4  0  0  0  0
 20 21  4  0  0  0  0
 21 22  4  0  0  0  0
 22 23  4  0  0  0  0
 19 23  4  0  0  0  0
 15 23  4  0  0  0  0
 16 24  4  0  0  0  0
  3 24  4  0  0  0  0
 24 25  2  0  0  0  0
M  END
>  <CdId>
456

>  <Mol Weight>
336.299

>  <Formula>
C19H12O6

>  <Molecule ChEMBL ID>
CHEMBL577397

>  <Molecule Name>
PONGAPIN

>  <Molecule Max Phase>
None

>  <Molecular Weight>
336.3

>  <#RO5 Violations>
0

>  <AlogP>
3.94

>  <Compound Key>
Pongapin

>  <Standard Type>
IC50

>  <Standard Relation>
'>'

>  <Standard Value>
20000.0

>  <Standard Units>
nM

$$$$

  Mrv2114 03112311372D          

 20 23  0  0  0  0            999 V2000
    5.1258   -1.0415    0.0000 O   0  0  0  0  0  0  0  0  0  0  0  0
    4.7358   -0.3145    0.0000 C   0  0  0  0  0  0  0  0  0  0  0  0
    5.1704    0.3867    0.0000 C   0  0  0  0  0  0  0  0  0  0  0  0
    4.7804    1.1137    0.0000 C   0  0  0  0  0  0  0  0  0  0  0  0
    5.2150    1.8150    0.0000 C   0  0  0  0  0  0  0  0  0  0  0  0
    4.8250    2.5420    0.0000 C   0  0  0  0  0  0  0  0  0  0  0  0
    5.2596    3.2432    0.0000 C   0  0  0  0  0  0  0  0  0  0  0  0
    6.0842    3.2175    0.0000 C   0  0  0  0  0  0  0  0  0  0  0  0
    6.4742    2.4905    0.0000 C   0  0  0  0  0  0  0  0  0  0  0  0
    6.0396    1.7892    0.0000 C   0  0  0  0  0  0  0  0  0  0  0  0
    3.9558    1.1395    0.0000 O   0  0  0  0  0  0  0  0  0  0  0  0
    3.5212    0.4383    0.0000 C   0  0  0  0  0  0  0  0  0  0  0  0
    3.9112   -0.2887    0.0000 C   0  0  0  0  0  0  0  0  0  0  0  0
    3.4766   -0.9900    0.0000 C   0  0  0  0  0  0  0  0  0  0  0  0
    2.6520   -0.9642    0.0000 C   0  0  0  0  0  0  0  0  0  0  0  0
    2.2620   -0.2372    0.0000 C   0  0  0  0  0  0  0  0  0  0  0  0
    1.4608   -0.0406    0.0000 O   0  0  0  0  0  0  0  0  0  0  0  0
    1.4002    0.7822    0.0000 C   0  0  0  0  0  0  0  0  0  0  0  0
    2.1640    1.0941    0.0000 C   0  0  0  0  0  0  0  0  0  0  0  0
    2.6966    0.4640    0.0000 C   0  0  0  0  0  0  0  0  0  0  0  0
  1  2  2  0  0  0  0
  2  3  4  0  0  0  0
  3  4  4  0  0  0  0
  4  5  1  0  0  0  0
  5  6  4  0  0  0  0
  6  7  4  0  0  0  0
  7  8  4  0  0  0  0
  8  9  4  0  0  0  0
  9 10  4  0  0  0  0
  5 10  4  0  0  0  0
  4 11  4  0  0  0  0
 11 12  4  0  0  0  0
 12 13  4  0  0  0  0
  2 13  4  0  0  0  0
 13 14  4  0  0  0  0
 14 15  4  0  0  0  0
 15 16  4  0  0  0  0
 16 17  4  0  0  0  0
 17 18  4  0  0  0  0
 18 19  4  0  0  0  0
 19 20  4  0  0  0  0
 16 20  4  0  0  0  0
 12 20  4  0  0  0  0
M  END
>  <CdId>
457

>  <Mol Weight>
262.264

>  <Formula>
C17H10O3

>  <Molecule ChEMBL ID>
CHEMBL224157

>  <Molecule Name>
LANCEOLATIN B

>  <Molecule Max Phase>
None

>  <Molecular Weight>
262.26

>  <#RO5 Violations>
0

>  <AlogP>
4.21

>  <Compound Key>
Lanceolatin B

>  <Standard Type>
IC50

>  <Standard Relation>
'>'

>  <Standard Value>
20000.0

>  <Standard Units>
nM

$$$$

  Mrv2114 03112311372D          

 22 24  0  0  0  0            999 V2000
   -3.0587    1.4455    0.0000 C   0  0  0  0  0  0  0  0  0  0  0  0
   -2.6462    0.7310    0.0000 C   0  0  0  0  0  0  0  0  0  0  0  0
   -1.8212    0.7310    0.0000 C   0  0  0  0  0  0  0  0  0  0  0  0
   -1.4087    0.0165    0.0000 C   0  0  0  0  0  0  0  0  0  0  0  0
   -0.5837    0.0165    0.0000 C   0  0  0  0  0  0  0  0  0  0  0  0
   -0.1712    0.7310    0.0000 O   0  0  0  0  0  0  0  0  0  0  0  0
   -0.1712   -0.6979    0.0000 N   0  0  0  0  0  0  0  0  0  0  0  0
    0.6538   -0.6979    0.0000 C   0  0  0  0  0  0  0  0  0  0  0  0
    1.1387   -0.0305    0.0000 N   0  0  0  0  0  0  0  0  0  0  0  0
    1.9233   -0.2854    0.0000 C   0  0  0  0  0  0  0  0  0  0  0  0
    2.6378    0.1271    0.0000 C   0  0  0  0  0  0  0  0  0  0  0  0
    3.3523   -0.2854    0.0000 C   0  0  0  0  0  0  0  0  0  0  0  0
    3.3523   -1.1104    0.0000 C   0  0  0  0  0  0  0  0  0  0  0  0
    4.0668   -1.5229    0.0000 Br  0  0  0  0  0  0  0  0  0  0  0  0
    2.6378   -1.5229    0.0000 C   0  0  0  0  0  0  0  0  0  0  0  0
    1.9233   -1.1104    0.0000 C   0  0  0  0  0  0  0  0  0  0  0  0
    1.1387   -1.3654    0.0000 S   0  0  0  0  0  0  0  0  0  0  0  0
   -1.8212   -0.6979    0.0000 C   0  0  0  0  0  0  0  0  0  0  0  0
   -2.6462   -0.6979    0.0000 C   0  0  0  0  0  0  0  0  0  0  0  0
   -2.5029   -1.5104    0.0000 C   0  0  0  0  0  0  0  0  0  0  0  0
   -3.4214   -0.9801    0.0000 C   0  0  0  0  0  0  0  0  0  0  0  0
   -3.0587    0.0165    0.0000 C   0  0  0  0  0  0  0  0  0  0  0  0
  1  2  1  0  0  0  0
  2  3  1  0  0  0  0
  3  4  1  0  0  0  0
  4  5  1  0  0  0  0
  5  6  2  0  0  0  0
  5  7  1  0  0  0  0
  7  8  1  0  0  0  0
  8  9  4  0  0  0  0
  9 10  4  0  0  0  0
 10 11  4  0  0  0  0
 11 12  4  0  0  0  0
 12 13  4  0  0  0  0
 13 14  1  0  0  0  0
 13 15  4  0  0  0  0
 15 16  4  0  0  0  0
 10 16  4  0  0  0  0
 16 17  4  0  0  0  0
  8 17  4  0  0  0  0
  4 18  1  0  0  0  0
 18 19  1  0  0  0  0
 19 20  1  0  0  0  0
 19 21  1  0  0  0  0
 19 22  1  0  0  0  0
  2 22  1  0  0  0  0
M  END
>  <CdId>
458

>  <Mol Weight>
381.33

>  <Formula>
C17H21BrN2OS

>  <Molecule ChEMBL ID>
CHEMBL4281073

>  <Molecule Max Phase>
None

>  <Molecular Weight>
381.34

>  <#RO5 Violations>
1

>  <AlogP>
5.46

>  <Compound Key>
28

>  <Standard Type>
IC50

>  <Standard Relation>
'>'

>  <Standard Value>
20000.0

>  <Standard Units>
nM

$$$$

  Mrv2114 03112311372D          

 35 38  0  0  0  0            999 V2000
    0.7145   -5.3625    0.0000 C   0  0  0  0  0  0  0  0  0  0  0  0
    1.4289   -4.9500    0.0000 C   0  0  0  0  0  0  0  0  0  0  0  0
    2.1434   -5.3625    0.0000 C   0  0  0  0  0  0  0  0  0  0  0  0
    2.1434   -6.1875    0.0000 C   0  0  0  0  0  0  0  0  0  0  0  0
    2.8109   -6.6724    0.0000 C   0  0  0  0  0  0  0  0  0  0  0  0
    2.5559   -7.4570    0.0000 C   0  0  0  0  0  0  0  0  0  0  0  0
    1.7309   -7.4570    0.0000 N   0  0  0  0  0  0  0  0  0  0  0  0
    1.2460   -8.1245    0.0000 C   0  0  0  0  0  0  0  0  0  0  0  0
    1.5815   -8.8782    0.0000 C   0  0  0  0  0  0  0  0  0  0  0  0
    1.0966   -9.5456    0.0000 C   0  0  0  0  0  0  0  0  0  0  0  0
    0.2761   -9.4594    0.0000 C   0  0  0  0  0  0  0  0  0  0  0  0
   -0.2088  -10.1268    0.0000 O   0  0  0  0  0  0  0  0  0  0  0  0
   -0.0594   -8.7057    0.0000 C   0  0  0  0  0  0  0  0  0  0  0  0
    0.4255   -8.0382    0.0000 N   0  0  0  0  0  0  0  0  0  0  0  0
    1.4760   -6.6724    0.0000 N   0  0  0  0  0  0  0  0  0  0  0  0
    1.4289   -4.1250    0.0000 C   0  0  0  0  0  0  0  0  0  0  0  0
    2.1434   -3.7125    0.0000 O   0  0  0  0  0  0  0  0  0  0  0  0
    0.7145   -3.7125    0.0000 N   0  0  0  0  0  0  0  0  0  0  0  0
    0.7145   -2.8875    0.0000 C   0  0  0  0  0  0  0  0  0  0  0  0
    0.0000   -2.4750    0.0000 C   0  0  0  0  0  0  0  0  0  0  0  0
   -0.7145   -2.8875    0.0000 C   0  0  0  0  0  0  0  0  0  0  0  0
   -1.4289   -2.4750    0.0000 O   0  0  0  0  0  0  0  0  0  0  0  0
   -0.7145   -3.7125    0.0000 O   0  0  0  0  0  0  0  0  0  0  0  0
    0.0000   -1.6500    0.0000 C   0  0  0  0  0  0  0  0  0  0  0  0
    0.7145   -1.2375    0.0000 C   0  0  0  0  0  0  0  0  0  0  0  0
    0.7145   -0.4125    0.0000 C   0  0  0  0  0  0  0  0  0  0  0  0
    0.0000    0.0000    0.0000 C   0  0  0  0  0  0  0  0  0  0  0  0
    0.0000    0.8250    0.0000 C   0  0  0  0  0  0  0  0  0  0  0  0
   -0.7145    1.2375    0.0000 F   0  0  0  0  0  0  0  0  0  0  0  0
    0.7145    1.2375    0.0000 C   0  0  0  0  0  0  0  0  0  0  0  0
    1.4289    0.8250    0.0000 C   0  0  0  0  0  0  0  0  0  0  0  0
    2.1434    1.2375    0.0000 F   0  0  0  0  0  0  0  0  0  0  0  0
    1.4289    0.0000    0.0000 C   0  0  0  0  0  0  0  0  0  0  0  0
    1.4289   -1.6500    0.0000 C   0  0  0  0  0  0  0  0  0  0  0  0
    1.4289   -2.4750    0.0000 C   0  0  0  0  0  0  0  0  0  0  0  0
  1  2  1  0  0  0  0
  2  3  1  0  0  0  0
  3  4  1  0  0  0  0
  4  5  4  0  0  0  0
  5  6  4  0  0  0  0
  6  7  4  0  0  0  0
  7  8  1  0  0  0  0
  8  9  4  0  0  0  0
  9 10  4  0  0  0  0
 10 11  4  0  0  0  0
 11 12  1  0  0  0  0
 11 13  4  0  0  0  0
 13 14  4  0  0  0  0
  8 14  4  0  0  0  0
  7 15  4  0  0  0  0
  4 15  4  0  0  0  0
  2 16  1  0  0  0  0
 16 17  2  0  0  0  0
 16 18  1  0  0  0  0
 18 19  1  0  0  0  0
 19 20  2  0  0  0  0
 20 21  1  0  0  0  0
 21 22  2  0  0  0  0
 21 23  1  0  0  0  0
 20 24  1  0  0  0  0
 24 25  1  0  0  0  0
 25 26  1  0  0  0  0
 26 27  4  0  0  0  0
 27 28  4  0  0  0  0
 28 29  1  0  0  0  0
 28 30  4  0  0  0  0
 30 31  4  0  0  0  0
 31 32  1  0  0  0  0
 31 33  4  0  0  0  0
 26 33  4  0  0  0  0
 25 34  1  0  0  0  0
 34 35  1  0  0  0  0
 19 35  1  0  0  0  0
M  END
>  <CdId>
459

>  <Mol Weight>
482.488

>  <Formula>
C25H24F2N4O4

>  <Molecule ChEMBL ID>
CHEMBL1085616

>  <Molecule Max Phase>
None

>  <Molecular Weight>
482.49

>  <#RO5 Violations>
0

>  <AlogP>
3.85

>  <Compound Key>
12e

>  <Standard Type>
IC50

>  <Standard Relation>
'='

>  <Standard Value>
7700.0

>  <Standard Units>
nM

$$$$

  Mrv2114 03112311372D          

 25 28  0  0  0  0            999 V2000
    0.5269   -3.0225    0.0000 C   0  0  0  0  0  0  0  0  0  0  0  0
   -0.0862   -2.4705    0.0000 C   0  0  0  0  0  0  0  0  0  0  0  0
   -0.8932   -2.6420    0.0000 C   0  0  0  0  0  0  0  0  0  0  0  0
   -1.3057   -1.9275    0.0000 C   0  0  0  0  0  0  0  0  0  0  0  0
   -2.1262   -1.8413    0.0000 O   0  0  0  0  0  0  0  0  0  0  0  0
   -2.6111   -2.5087    0.0000 C   0  0  0  0  0  0  0  0  0  0  0  0
   -3.4316   -2.4225    0.0000 C   0  0  0  0  0  0  0  0  0  0  0  0
   -3.9165   -3.0899    0.0000 N   0  0  0  0  0  0  0  0  0  0  0  0
   -3.5810   -3.8436    0.0000 C   0  0  0  0  0  0  0  0  0  0  0  0
   -4.0659   -4.5111    0.0000 C   0  0  0  0  0  0  0  0  0  0  0  0
   -4.8864   -4.4248    0.0000 O   0  0  0  0  0  0  0  0  0  0  0  0
   -5.2219   -3.6711    0.0000 C   0  0  0  0  0  0  0  0  0  0  0  0
   -4.7370   -3.0037    0.0000 C   0  0  0  0  0  0  0  0  0  0  0  0
   -0.7537   -1.3144    0.0000 N   0  0  0  0  0  0  0  0  0  0  0  0
    0.0000   -1.6500    0.0000 N   0  0  0  0  0  0  0  0  0  0  0  0
    0.7145   -1.2375    0.0000 C   0  0  0  0  0  0  0  0  0  0  0  0
    0.7145   -0.4125    0.0000 C   0  0  0  0  0  0  0  0  0  0  0  0
    1.4289    0.0000    0.0000 C   0  0  0  0  0  0  0  0  0  0  0  0
    2.1434   -0.4125    0.0000 C   0  0  0  0  0  0  0  0  0  0  0  0
    2.8579    0.0000    0.0000 C   0  0  0  0  0  0  0  0  0  0  0  0
    3.5724   -0.4125    0.0000 C   0  0  0  0  0  0  0  0  0  0  0  0
    3.5724   -1.2375    0.0000 C   0  0  0  0  0  0  0  0  0  0  0  0
    2.8579   -1.6500    0.0000 C   0  0  0  0  0  0  0  0  0  0  0  0
    2.1434   -1.2375    0.0000 C   0  0  0  0  0  0  0  0  0  0  0  0
    1.4289   -1.6500    0.0000 C   0  0  0  0  0  0  0  0  0  0  0  0
  1  2  1  0  0  0  0
  2  3  4  0  0  0  0
  3  4  4  0  0  0  0
  4  5  1  0  0  0  0
  5  6  1  0  0  0  0
  6  7  1  0  0  0  0
  7  8  1  0  0  0  0
  8  9  1  0  0  0  0
  9 10  1  0  0  0  0
 10 11  1  0  0  0  0
 11 12  1  0  0  0  0
 12 13  1  0  0  0  0
  8 13  1  0  0  0  0
  4 14  4  0  0  0  0
 14 15  4  0  0  0  0
  2 15  4  0  0  0  0
 15 16  1  0  0  0  0
 16 17  4  0  0  0  0
 17 18  4  0  0  0  0
 18 19  4  0  0  0  0
 19 20  4  0  0  0  0
 20 21  4  0  0  0  0
 21 22  4  0  0  0  0
 22 23  4  0  0  0  0
 23 24  4  0  0  0  0
 19 24  4  0  0  0  0
 24 25  4  0  0  0  0
 16 25  4  0  0  0  0
M  END
>  <CdId>
460

>  <Mol Weight>
337.423

>  <Formula>
C20H23N3O2

>  <Molecule ChEMBL ID>
CHEMBL2170062

>  <Molecule Max Phase>
None

>  <Molecular Weight>
337.42

>  <#RO5 Violations>
0

>  <AlogP>
3.04

>  <Compound Key>
28, S1RA, E-52862

>  <Standard Type>
IC50

>  <Standard Relation>
'>'

>  <Standard Value>
10000.0

>  <Standard Units>
nM

$$$$

  Mrv2114 03112311372D          

 14 15  0  0  0  0            999 V2000
   -1.4087   -1.4124    0.0000 C   0  0  0  0  0  0  0  0  0  0  0  0
   -0.5837   -1.4124    0.0000 C   0  0  0  0  0  0  0  0  0  0  0  0
   -0.1712   -0.6979    0.0000 S   0  0  0  0  0  0  0  0  0  0  0  0
    0.6538   -0.6979    0.0000 C   0  0  0  0  0  0  0  0  0  0  0  0
    1.1387   -0.0305    0.0000 N   0  0  0  0  0  0  0  0  0  0  0  0
    1.9233   -0.2854    0.0000 C   0  0  0  0  0  0  0  0  0  0  0  0
    2.6378    0.1271    0.0000 C   0  0  0  0  0  0  0  0  0  0  0  0
    3.3523   -0.2854    0.0000 C   0  0  0  0  0  0  0  0  0  0  0  0
    4.0668    0.1271    0.0000 O   0  0  0  0  0  0  0  0  0  0  0  0
    4.0668    0.9521    0.0000 C   0  0  0  0  0  0  0  0  0  0  0  0
    3.3523   -1.1104    0.0000 C   0  0  0  0  0  0  0  0  0  0  0  0
    2.6378   -1.5229    0.0000 C   0  0  0  0  0  0  0  0  0  0  0  0
    1.9233   -1.1104    0.0000 C   0  0  0  0  0  0  0  0  0  0  0  0
    1.1387   -1.3654    0.0000 N   0  0  0  0  0  0  0  0  0  0  0  0
  1  2  1  0  0  0  0
  2  3  1  0  0  0  0
  3  4  1  0  0  0  0
  4  5  4  0  0  0  0
  5  6  4  0  0  0  0
  6  7  4  0  0  0  0
  7  8  4  0  0  0  0
  8  9  1  0  0  0  0
  9 10  1  0  0  0  0
  8 11  4  0  0  0  0
 11 12  4  0  0  0  0
 12 13  4  0  0  0  0
  6 13  4  0  0  0  0
 13 14  4  0  0  0  0
  4 14  4  0  0  0  0
M  STY  1   1 DAT
M  SAL   1  1  14
M  SDT   1 MRV_IMPLICIT_H                                        
M  SDD   1     0.0000    0.0000    DR    ALL  0       0  
M  SED   1 IMPL_H1
M  END
>  <CdId>
461

>  <Mol Weight>
208.28

>  <Formula>
C10H12N2OS

>  <Molecule ChEMBL ID>
CHEMBL2018906

>  <Molecule Max Phase>
None

>  <Molecular Weight>
208.29

>  <#RO5 Violations>
0

>  <AlogP>
2.68

>  <Compound Key>
1

>  <Standard Type>
IC50

>  <Standard Relation>
'='

>  <Standard Value>
6970.0

>  <Standard Units>
nM

$$$$

  Mrv2114 03112311372D          

 33 37  0  0  0  0            999 V2000
    1.8435    6.3674    0.0000 C   0  0  0  0  0  0  0  0  0  0  0  0
    2.1256    5.5922    0.0000 C   0  0  0  0  0  0  0  0  0  0  0  0
    2.9381    5.4489    0.0000 C   0  0  0  0  0  0  0  0  0  0  0  0
    3.2203    4.6737    0.0000 C   0  0  0  0  0  0  0  0  0  0  0  0
    2.6900    4.0417    0.0000 C   0  0  0  0  0  0  0  0  0  0  0  0
    2.9721    3.2664    0.0000 N   0  0  0  0  0  0  0  0  0  0  0  0
    3.7846    3.1232    0.0000 C   0  0  0  0  0  0  0  0  0  0  0  0
    4.3149    3.7552    0.0000 O   0  0  0  0  0  0  0  0  0  0  0  0
    4.0668    2.3479    0.0000 C   0  0  0  0  0  0  0  0  0  0  0  0
    3.3523    1.9354    0.0000 C   0  0  0  0  0  0  0  0  0  0  0  0
    3.3523    1.1104    0.0000 C   0  0  0  0  0  0  0  0  0  0  0  0
    2.6378    0.6979    0.0000 C   0  0  0  0  0  0  0  0  0  0  0  0
    1.9233    1.1104    0.0000 C   0  0  0  0  0  0  0  0  0  0  0  0
    1.9233    1.9354    0.0000 C   0  0  0  0  0  0  0  0  0  0  0  0
    2.6378    2.3479    0.0000 C   0  0  0  0  0  0  0  0  0  0  0  0
    1.1387    2.1904    0.0000 O   0  0  0  0  0  0  0  0  0  0  0  0
    0.6538    1.5229    0.0000 C   0  0  0  0  0  0  0  0  0  0  0  0
    0.0407    2.0750    0.0000 F   0  0  0  0  0  0  0  0  0  0  0  0
    0.0407    0.9709    0.0000 F   0  0  0  0  0  0  0  0  0  0  0  0
    1.1387    0.8555    0.0000 O   0  0  0  0  0  0  0  0  0  0  0  0
    4.8792    2.4912    0.0000 C   0  0  0  0  0  0  0  0  0  0  0  0
    4.5971    1.7160    0.0000 C   0  0  0  0  0  0  0  0  0  0  0  0
    1.8775    4.1850    0.0000 N   0  0  0  0  0  0  0  0  0  0  0  0
    1.5953    4.9602    0.0000 C   0  0  0  0  0  0  0  0  0  0  0  0
    0.7829    5.1035    0.0000 C   0  0  0  0  0  0  0  0  0  0  0  0
    0.2526    4.4715    0.0000 C   0  0  0  0  0  0  0  0  0  0  0  0
   -0.5599    4.6147    0.0000 C   0  0  0  0  0  0  0  0  0  0  0  0
   -0.8421    5.3900    0.0000 C   0  0  0  0  0  0  0  0  0  0  0  0
   -0.3118    6.0220    0.0000 C   0  0  0  0  0  0  0  0  0  0  0  0
   -0.5939    6.7972    0.0000 C   0  0  0  0  0  0  0  0  0  0  0  0
   -1.4064    6.9405    0.0000 O   0  0  0  0  0  0  0  0  0  0  0  0
   -0.0636    7.4292    0.0000 O   0  0  0  0  0  0  0  0  0  0  0  0
    0.5007    5.8787    0.0000 C   0  0  0  0  0  0  0  0  0  0  0  0
  1  2  1  0  0  0  0
  2  3  4  0  0  0  0
  3  4  4  0  0  0  0
  4  5  4  0  0  0  0
  5  6  1  0  0  0  0
  6  7  1  0  0  0  0
  7  8  2  0  0  0  0
  7  9  1  0  0  0  0
  9 10  1  0  0  0  0
 10 11  4  0  0  0  0
 11 12  4  0  0  0  0
 12 13  4  0  0  0  0
 13 14  4  0  0  0  0
 14 15  4  0  0  0  0
 10 15  4  0  0  0  0
 14 16  1  0  0  0  0
 16 17  1  0  0  0  0
 17 18  1  0  0  0  0
 17 19  1  0  0  0  0
 17 20  1  0  0  0  0
 13 20  1  0  0  0  0
  9 21  1  0  0  0  0
 21 22  1  0  0  0  0
  9 22  1  0  0  0  0
  5 23  4  0  0  0  0
 23 24  4  0  0  0  0
  2 24  4  0  0  0  0
 24 25  1  0  0  0  0
 25 26  4  0  0  0  0
 26 27  4  0  0  0  0
 27 28  4  0  0  0  0
 28 29  4  0  0  0  0
 29 30  1  0  0  0  0
 30 31  2  0  0  0  0
 30 32  1  0  0  0  0
 29 33  4  0  0  0  0
 25 33  4  0  0  0  0
M  END
>  <CdId>
462

>  <Mol Weight>
452.414

>  <Formula>
C24H18F2N2O5

>  <Molecule ChEMBL ID>
CHEMBL2103870

>  <Molecule Name>
LUMACAFTOR

>  <Molecule Max Phase>
4

>  <Molecular Weight>
452.41

>  <#RO5 Violations>
0

>  <AlogP>
4.75

>  <Compound Key>
286

>  <Standard Type>
IC50

>  <Standard Relation>
'='

>  <Standard Value>
12000.0

>  <Standard Units>
nM

$$$$

  Mrv2114 03112311372D          

 44 49  0  0  1  0            999 V2000
   -6.4302   -2.0625    0.0000 C   0  0  0  0  0  0  0  0  0  0  0  0
   -5.7158   -1.6500    0.0000 N   0  0  0  0  0  0  0  0  0  0  0  0
   -5.7158   -0.8250    0.0000 C   0  0  1  0  0  0  0  0  0  0  0  0
   -6.4302   -0.4125    0.0000 C   0  0  0  0  0  0  0  0  0  0  0  0
   -5.0013   -0.4125    0.0000 C   0  0  0  0  0  0  0  0  0  0  0  0
   -4.2868   -0.8250    0.0000 O   0  0  0  0  0  0  0  0  0  0  0  0
   -5.0013    0.4125    0.0000 N   0  0  0  0  0  0  0  0  0  0  0  0
   -4.2868    0.8250    0.0000 C   0  0  0  0  0  0  0  0  0  0  0  0
   -4.2868    1.6500    0.0000 C   0  0  0  0  0  0  0  0  0  0  0  0
   -3.5724    2.0625    0.0000 C   0  0  0  0  0  0  0  0  0  0  0  0
   -2.8579    1.6500    0.0000 C   0  0  0  0  0  0  0  0  0  0  0  0
   -2.1434    2.0625    0.0000 C   0  0  0  0  0  0  0  0  0  0  0  0
   -2.0572    2.8830    0.0000 C   0  0  0  0  0  0  0  0  0  0  0  0
   -2.6703    3.4350    0.0000 C   0  0  0  0  0  0  0  0  0  0  0  0
   -3.4549    3.1801    0.0000 C   0  0  0  0  0  0  0  0  0  0  0  0
   -4.0680    3.7321    0.0000 N   0  0  0  0  0  0  0  0  0  0  0  0
   -3.8965    4.5391    0.0000 C   0  0  0  0  0  0  0  0  0  0  0  0
   -4.5096    5.0911    0.0000 C   0  0  0  0  0  0  0  0  0  0  0  0
   -3.1118    4.7940    0.0000 N   0  0  0  0  0  0  0  0  0  0  0  0
   -2.4987    4.2420    0.0000 C   0  0  0  0  0  0  0  0  0  0  0  0
   -1.2502    3.0545    0.0000 N   0  0  0  0  0  0  0  0  0  0  0  0
   -0.8377    2.3400    0.0000 C   0  0  0  0  0  0  0  0  0  0  0  0
   -0.0307    2.1685    0.0000 C   0  0  0  0  0  0  0  0  0  0  0  0
    0.2242    1.3839    0.0000 C   0  0  0  0  0  0  0  0  0  0  0  0
    1.0312    1.2124    0.0000 C   0  0  0  0  0  0  0  0  0  0  0  0
   -0.3278    0.7708    0.0000 C   0  0  0  0  0  0  0  0  0  0  0  0
   -1.1348    0.9423    0.0000 C   0  0  0  0  0  0  0  0  0  0  0  0
   -1.3897    1.7269    0.0000 N   0  0  0  0  0  0  0  0  0  0  0  0
   -2.8579    0.8250    0.0000 C   0  0  0  0  0  0  0  0  0  0  0  0
   -2.1434    0.4125    0.0000 C   0  0  0  0  0  0  0  0  0  0  0  0
   -1.4289    0.0000    0.0000 C   0  0  0  0  0  0  0  0  0  0  0  0
   -0.7145   -0.4125    0.0000 C   0  0  0  0  0  0  0  0  0  0  0  0
   -0.7145   -1.2375    0.0000 C   0  0  0  0  0  0  0  0  0  0  0  0
    0.0000   -1.6500    0.0000 C   0  0  0  0  0  0  0  0  0  0  0  0
    0.7145   -1.2375    0.0000 C   0  0  0  0  0  0  0  0  0  0  0  0
    0.7145   -0.4125    0.0000 C   0  0  0  0  0  0  0  0  0  0  0  0
    1.4289   -0.0000    0.0000 C   0  0  0  0  0  0  0  0  0  0  0  0
    2.1434   -0.4125    0.0000 C   0  0  0  0  0  0  0  0  0  0  0  0
    2.1434   -1.2375    0.0000 C   0  0  0  0  0  0  0  0  0  0  0  0
    2.8579   -1.6500    0.0000 O   0  0  0  0  0  0  0  0  0  0  0  0
    1.4289   -1.6500    0.0000 N   0  0  0  0  0  0  0  0  0  0  0  0
    1.4289   -2.4750    0.0000 C   0  0  0  0  0  0  0  0  0  0  0  0
    0.0000   -0.0000    0.0000 C   0  0  0  0  0  0  0  0  0  0  0  0
   -3.5724    0.4125    0.0000 N   0  0  0  0  0  0  0  0  0  0  0  0
  1  2  1  0  0  0  0
  3  2  1  0  0  0  0
  3  4  1  1  0  0  0
  3  5  1  0  0  0  0
  5  6  2  0  0  0  0
  5  7  1  0  0  0  0
  7  8  1  0  0  0  0
  8  9  4  0  0  0  0
  9 10  4  0  0  0  0
 10 11  4  0  0  0  0
 11 12  1  0  0  0  0
 12 13  4  0  0  0  0
 13 14  1  0  0  0  0
 14 15  4  0  0  0  0
 15 16  4  0  0  0  0
 16 17  4  0  0  0  0
 17 18  1  0  0  0  0
 17 19  4  0  0  0  0
 19 20  4  0  0  0  0
 14 20  4  0  0  0  0
 13 21  4  0  0  0  0
 21 22  4  0  0  0  0
 22 23  4  0  0  0  0
 23 24  4  0  0  0  0
 24 25  1  0  0  0  0
 24 26  4  0  0  0  0
 26 27  4  0  0  0  0
 27 28  4  0  0  0  0
 12 28  4  0  0  0  0
 22 28  4  0  0  0  0
 11 29  4  0  0  0  0
 29 30  1  0  0  0  0
 30 31  3  0  0  0  0
 31 32  1  0  0  0  0
 32 33  4  0  0  0  0
 33 34  4  0  0  0  0
 34 35  4  0  0  0  0
 35 36  4  0  0  0  0
 36 37  4  0  0  0  0
 37 38  4  0  0  0  0
 38 39  4  0  0  0  0
 39 40  2  0  0  0  0
 39 41  4  0  0  0  0
 35 41  4  0  0  0  0
 41 42  1  0  0  0  0
 36 43  4  0  0  0  0
 32 43  4  0  0  0  0
 29 44  4  0  0  0  0
  8 44  4  0  0  0  0
M  END
>  <CdId>
463

>  <Mol Weight>
582.668

>  <Formula>
C34H30N8O2

>  <Molecule ChEMBL ID>
CHEMBL3935923

>  <Molecule Max Phase>
None

>  <Molecular Weight>
582.67

>  <#RO5 Violations>
1

>  <AlogP>
4.27

>  <Compound Key>
BDBM254002

>  <Standard Type>
IC50

>  <Standard Relation>
'>'

>  <Standard Value>
50000.0

>  <Standard Units>
nM

$$$$

  Mrv2114 03112311372D          

 35 39  0  0  1  0            999 V2000
    8.1762   -5.3794    0.0000 C   0  0  0  0  0  0  0  0  0  0  0  0
    7.3640   -5.5246    0.0000 N   0  0  0  0  0  0  0  0  0  0  0  0
    7.0838   -6.3006    0.0000 C   0  0  0  0  0  0  0  0  0  0  0  0
    6.8322   -4.8939    0.0000 C   0  0  0  0  0  0  0  0  0  0  0  0
    6.0201   -5.0391    0.0000 C   0  0  0  0  0  0  0  0  0  0  0  0
    5.4883   -4.4084    0.0000 C   0  0  0  0  0  0  0  0  0  0  0  0
    5.7686   -3.6325    0.0000 C   0  0  0  0  0  0  0  0  0  0  0  0
    5.2368   -3.0018    0.0000 C   0  0  1  0  0  0  0  0  0  0  0  0
    4.4247   -3.1470    0.0000 C   0  0  0  0  0  0  0  0  0  0  0  0
    3.8928   -2.5163    0.0000 C   0  0  1  0  0  0  0  0  0  0  0  0
    3.5330   -3.2587    0.0000 C   0  0  0  0  0  0  0  0  0  0  0  0
    4.1731   -1.7404    0.0000 C   0  0  1  0  0  0  0  0  0  0  0  0
    3.5218   -1.2340    0.0000 C   0  0  0  0  0  0  0  0  0  0  0  0
    2.8390   -1.6970    0.0000 C   0  0  0  0  0  0  0  0  0  0  0  0
    3.0683   -2.4895    0.0000 C   0  0  2  0  0  0  0  0  0  0  0  0
    2.3074   -2.8084    0.0000 O   0  0  0  0  0  0  0  0  0  0  0  0
    2.9469   -3.3055    0.0000 C   0  0  0  0  0  0  0  0  0  0  0  0
    2.8255   -4.1215    0.0000 C   0  0  0  0  0  0  0  0  0  0  0  0
    2.7041   -4.9376    0.0000 C   0  0  0  0  0  0  0  0  0  0  0  0
    2.5827   -5.7536    0.0000 C   0  0  0  0  0  0  0  0  0  0  0  0
    1.8880   -4.8162    0.0000 C   0  0  0  0  0  0  0  0  0  0  0  0
    3.5201   -5.0590    0.0000 C   0  0  0  0  0  0  0  0  0  0  0  0
    4.9853   -1.5952    0.0000 C   0  0  2  0  0  0  0  0  0  0  0  0
    5.2655   -0.8192    0.0000 C   0  0  0  0  0  0  0  0  0  0  0  0
    6.0777   -0.6740    0.0000 C   0  0  0  0  0  0  0  0  0  0  0  0
    6.6095   -1.3047    0.0000 C   0  0  0  0  0  0  0  0  0  0  0  0
    7.4216   -1.1595    0.0000 C   0  0  0  0  0  0  0  0  0  0  0  0
    7.9534   -1.7902    0.0000 C   0  0  0  0  0  0  0  0  0  0  0  0
    8.7655   -1.6450    0.0000 O   0  0  0  0  0  0  0  0  0  0  0  0
    7.6731   -2.5662    0.0000 C   0  0  0  0  0  0  0  0  0  0  0  0
    6.8610   -2.7114    0.0000 C   0  0  0  0  0  0  0  0  0  0  0  0
    6.3292   -2.0807    0.0000 C   0  0  0  0  0  0  0  0  0  0  0  0
    5.5171   -2.2259    0.0000 C   0  0  0  0  0  0  0  0  0  0  0  0
    6.5807   -3.4873    0.0000 C   0  0  0  0  0  0  0  0  0  0  0  0
    7.1125   -4.1180    0.0000 C   0  0  0  0  0  0  0  0  0  0  0  0
  1  2  1  0  0  0  0
  2  3  1  0  0  0  0
  2  4  1  0  0  0  0
  4  5  4  0  0  0  0
  5  6  4  0  0  0  0
  6  7  4  0  0  0  0
  8  7  1  1  0  0  0
  8  9  1  0  0  0  0
 10  9  1  0  0  0  0
 10 11  1  1  0  0  0
 10 12  1  0  0  0  0
 12 13  1  1  0  0  0
 13 14  1  0  0  0  0
 15 14  1  0  0  0  0
 10 15  1  0  0  0  0
 15 16  1  1  0  0  0
 15 17  1  6  0  0  0
 17 18  3  0  0  0  0
 18 19  1  0  0  0  0
 19 20  1  0  0  0  0
 19 21  1  0  0  0  0
 19 22  1  0  0  0  0
 12 23  1  0  0  0  0
 23 24  1  6  0  0  0
 24 25  1  0  0  0  0
 25 26  1  0  0  0  0
 26 27  2  0  0  0  0
 27 28  1  0  0  0  0
 28 29  2  0  0  0  0
 28 30  1  0  0  0  0
 30 31  1  0  0  0  0
 31 32  1  0  0  0  0
 26 32  1  0  0  0  0
 32 33  2  0  0  0  0
 23 33  1  0  0  0  0
  8 33  1  0  0  0  0
  7 34  4  0  0  0  0
 34 35  4  0  0  0  0
  4 35  4  0  0  0  0
M  END
>  <CdId>
464

>  <Mol Weight>
471.685

>  <Formula>
C32H41NO2

>  <Molecule ChEMBL ID>
CHEMBL4163069

>  <Molecule Max Phase>
None

>  <Molecular Weight>
471.69

>  <#RO5 Violations>
1

>  <AlogP>
6.43

>  <Compound Key>
11

>  <Standard Type>
IC50

>  <Standard Relation>
'>'

>  <Standard Value>
10000.0

>  <Standard Units>
nM

$$$$

  Mrv2114 03112311372D          

 12 10  0  0  0  0            999 V2000
    0.0000    0.0000    0.0000 Cl  0  0  0  0  0  0  0  0  0  0  0  0
    2.0036    0.0000    0.0000 Cl  0  0  0  0  0  0  0  0  0  0  0  0
   -0.6430   -1.6500    0.0000 N   0  0  0  0  0  0  0  0  0  0  0  0
    0.0714   -2.0625    0.0000 C   0  0  0  0  0  0  0  0  0  0  0  0
    0.0714   -2.8875    0.0000 C   0  0  0  0  0  0  0  0  0  0  0  0
    0.0714   -3.7125    0.0000 C   0  0  0  0  0  0  0  0  0  0  0  0
    0.0714   -4.5375    0.0000 C   0  0  0  0  0  0  0  0  0  0  0  0
    0.7859   -4.9500    0.0000 C   0  0  0  0  0  0  0  0  0  0  0  0
    0.7859   -5.7750    0.0000 C   0  0  0  0  0  0  0  0  0  0  0  0
    0.0714   -6.1875    0.0000 C   0  0  0  0  0  0  0  0  0  0  0  0
   -0.6430   -5.7750    0.0000 N   0  0  0  0  0  0  0  0  0  0  0  0
   -0.6430   -4.9500    0.0000 C   0  0  0  0  0  0  0  0  0  0  0  0
  3  4  1  0  0  0  0
  4  5  1  0  0  0  0
  5  6  3  0  0  0  0
  6  7  1  0  0  0  0
  7  8  4  0  0  0  0
  8  9  4  0  0  0  0
  9 10  4  0  0  0  0
 10 11  4  0  0  0  0
 11 12  4  0  0  0  0
  7 12  4  0  0  0  0
M  END
>  <CdId>
465

>  <Mol Weight>
205.08

>  <Formula>
C8H10Cl2N2

>  <Molecule ChEMBL ID>
CHEMBL4171558

>  <Molecule Max Phase>
None

>  <Molecular Weight>
205.09

>  <#RO5 Violations>
0

>  <AlogP>
0.39

>  <Compound Key>
4a

>  <Standard Type>
IC50

>  <Standard Relation>
'='

>  <Standard Value>
6400.0

>  <Standard Units>
nM

$$$$

  Mrv2114 03112311372D          

 31 34  0  0  0  0            999 V2000
    2.7512    0.7634    0.0000 C   0  0  0  0  0  0  0  0  0  0  0  0
    2.7512   -0.0616    0.0000 C   0  0  0  0  0  0  0  0  0  0  0  0
    3.4656   -0.4741    0.0000 C   0  0  0  0  0  0  0  0  0  0  0  0
    3.4656   -1.2991    0.0000 C   0  0  0  0  0  0  0  0  0  0  0  0
    2.7512   -1.7116    0.0000 C   0  0  0  0  0  0  0  0  0  0  0  0
    2.7512   -2.5366    0.0000 N   0  0  0  0  0  0  0  0  0  0  0  0
    2.0837   -3.0215    0.0000 N   0  0  0  0  0  0  0  0  0  0  0  0
    2.3387   -3.8062    0.0000 C   0  0  0  0  0  0  0  0  0  0  0  0
    1.8538   -4.4736    0.0000 C   0  0  0  0  0  0  0  0  0  0  0  0
    1.3688   -5.1410    0.0000 C   0  0  0  0  0  0  0  0  0  0  0  0
    1.1863   -3.9887    0.0000 C   0  0  0  0  0  0  0  0  0  0  0  0
    2.5212   -4.9585    0.0000 C   0  0  0  0  0  0  0  0  0  0  0  0
    3.1637   -3.8062    0.0000 C   0  0  0  0  0  0  0  0  0  0  0  0
    3.4186   -3.0215    0.0000 C   0  0  0  0  0  0  0  0  0  0  0  0
    4.2032   -2.7666    0.0000 N   0  0  0  0  0  0  0  0  0  0  0  0
    4.8163   -3.3186    0.0000 C   0  0  0  0  0  0  0  0  0  0  0  0
    4.6448   -4.1256    0.0000 O   0  0  0  0  0  0  0  0  0  0  0  0
    5.6010   -3.0637    0.0000 N   0  0  0  0  0  0  0  0  0  0  0  0
    6.2140   -3.6157    0.0000 C   0  0  0  0  0  0  0  0  0  0  0  0
    6.9987   -3.3608    0.0000 C   0  0  0  0  0  0  0  0  0  0  0  0
    7.6118   -3.9128    0.0000 C   0  0  0  0  0  0  0  0  0  0  0  0
    7.4402   -4.7198    0.0000 C   0  0  0  0  0  0  0  0  0  0  0  0
    8.0533   -5.2718    0.0000 N   0  0  0  0  0  0  0  0  0  0  0  0
    8.8603   -5.1003    0.0000 C   0  0  0  0  0  0  0  0  0  0  0  0
    9.2728   -5.8148    0.0000 C   0  0  0  0  0  0  0  0  0  0  0  0
    8.7208   -6.4279    0.0000 N   0  0  0  0  0  0  0  0  0  0  0  0
    7.9671   -6.0923    0.0000 C   0  0  0  0  0  0  0  0  0  0  0  0
    6.6556   -4.9747    0.0000 C   0  0  0  0  0  0  0  0  0  0  0  0
    6.0425   -4.4227    0.0000 C   0  0  0  0  0  0  0  0  0  0  0  0
    2.0367   -1.2991    0.0000 C   0  0  0  0  0  0  0  0  0  0  0  0
    2.0367   -0.4741    0.0000 C   0  0  0  0  0  0  0  0  0  0  0  0
  1  2  1  0  0  0  0
  2  3  4  0  0  0  0
  3  4  4  0  0  0  0
  4  5  4  0  0  0  0
  5  6  1  0  0  0  0
  6  7  4  0  0  0  0
  7  8  4  0  0  0  0
  8  9  1  0  0  0  0
  9 10  1  0  0  0  0
  9 11  1  0  0  0  0
  9 12  1  0  0  0  0
  8 13  4  0  0  0  0
 13 14  4  0  0  0  0
  6 14  4  0  0  0  0
 14 15  1  0  0  0  0
 15 16  1  0  0  0  0
 16 17  2  0  0  0  0
 16 18  1  0  0  0  0
 18 19  1  0  0  0  0
 19 20  4  0  0  0  0
 20 21  4  0  0  0  0
 21 22  4  0  0  0  0
 22 23  1  0  0  0  0
 23 24  4  0  0  0  0
 24 25  4  0  0  0  0
 25 26  4  0  0  0  0
 26 27  4  0  0  0  0
 23 27  4  0  0  0  0
 22 28  4  0  0  0  0
 28 29  4  0  0  0  0
 19 29  4  0  0  0  0
  5 30  4  0  0  0  0
 30 31  4  0  0  0  0
  2 31  4  0  0  0  0
M  END
>  <CdId>
466

>  <Mol Weight>
414.513

>  <Formula>
C24H26N6O

>  <Molecule ChEMBL ID>
CHEMBL2425146

>  <Molecule Max Phase>
None

>  <Molecular Weight>
414.51

>  <#RO5 Violations>
1

>  <AlogP>
5.31

>  <Compound Key>
17

>  <Standard Type>
IC50

>  <Standard Relation>
'='

>  <Standard Value>
400.0

>  <Standard Units>
nM

$$$$

  Mrv2114 03112311372D          

 31 33  0  0  1  0            999 V2000
    0.0000    0.0000    0.0000 Cl  0  0  0  0  0  0  0  0  0  0  0  0
    8.6885   -0.5327    0.0000 C   0  0  0  0  0  0  0  0  0  0  0  0
    8.6885   -1.3577    0.0000 N   0  0  0  0  0  0  0  0  0  0  0  0
    9.3559   -1.8426    0.0000 N   0  0  0  0  0  0  0  0  0  0  0  0
    9.1010   -2.6272    0.0000 C   0  0  0  0  0  0  0  0  0  0  0  0
    8.2760   -2.6272    0.0000 C   0  0  0  0  0  0  0  0  0  0  0  0
    8.0210   -1.8426    0.0000 C   0  0  0  0  0  0  0  0  0  0  0  0
    7.2364   -1.5877    0.0000 C   0  0  0  0  0  0  0  0  0  0  0  0
    6.6233   -2.1397    0.0000 C   0  0  0  0  0  0  0  0  0  0  0  0
    5.8387   -1.8848    0.0000 C   0  0  0  0  0  0  0  0  0  0  0  0
    5.6672   -1.0778    0.0000 C   0  0  0  0  0  0  0  0  0  0  0  0
    4.8825   -0.8229    0.0000 C   0  0  0  0  0  0  0  0  0  0  0  0
    4.2694   -1.3749    0.0000 O   0  0  0  0  0  0  0  0  0  0  0  0
    4.7110   -0.0159    0.0000 N   0  0  0  0  0  0  0  0  0  0  0  0
    3.9264    0.2391    0.0000 C   0  0  2  0  0  0  0  0  0  0  0  0
    3.3133   -0.3130    0.0000 C   0  0  0  0  0  0  0  0  0  0  0  0
    2.5287   -0.0580    0.0000 N   0  0  0  0  0  0  0  0  0  0  0  0
    2.3571    0.7489    0.0000 C   0  0  0  0  0  0  0  0  0  0  0  0
    2.9702    1.3010    0.0000 C   0  0  0  0  0  0  0  0  0  0  0  0
    3.7549    1.0460    0.0000 C   0  0  1  0  0  0  0  0  0  0  0  0
    4.3680    1.5981    0.0000 C   0  0  0  0  0  0  0  0  0  0  0  0
    4.1964    2.4050    0.0000 C   0  0  0  0  0  0  0  0  0  0  0  0
    4.8095    2.9571    0.0000 C   0  0  0  0  0  0  0  0  0  0  0  0
    5.5941    2.7021    0.0000 C   0  0  0  0  0  0  0  0  0  0  0  0
    6.2072    3.2542    0.0000 F   0  0  0  0  0  0  0  0  0  0  0  0
    5.7657    1.8952    0.0000 C   0  0  0  0  0  0  0  0  0  0  0  0
    6.5503    1.6402    0.0000 F   0  0  0  0  0  0  0  0  0  0  0  0
    5.1526    1.3431    0.0000 C   0  0  0  0  0  0  0  0  0  0  0  0
    6.2803   -0.5258    0.0000 C   0  0  0  0  0  0  0  0  0  0  0  0
    6.1087    0.2812    0.0000 F   0  0  0  0  0  0  0  0  0  0  0  0
    7.0649   -0.7807    0.0000 C   0  0  0  0  0  0  0  0  0  0  0  0
  2  3  1  0  0  0  0
  3  4  4  0  0  0  0
  4  5  4  0  0  0  0
  5  6  4  0  0  0  0
  6  7  4  0  0  0  0
  3  7  4  0  0  0  0
  7  8  1  0  0  0  0
  8  9  4  0  0  0  0
  9 10  4  0  0  0  0
 10 11  4  0  0  0  0
 11 12  1  0  0  0  0
 12 13  2  0  0  0  0
 12 14  1  0  0  0  0
 15 14  1  6  0  0  0
 15 16  1  0  0  0  0
 16 17  1  0  0  0  0
 17 18  1  0  0  0  0
 18 19  1  0  0  0  0
 20 19  1  0  0  0  0
 15 20  1  0  0  0  0
 20 21  1  1  0  0  0
 21 22  4  0  0  0  0
 22 23  4  0  0  0  0
 23 24  4  0  0  0  0
 24 25  1  0  0  0  0
 24 26  4  0  0  0  0
 26 27  1  0  0  0  0
 26 28  4  0  0  0  0
 21 28  4  0  0  0  0
 11 29  4  0  0  0  0
 29 30  1  0  0  0  0
 29 31  4  0  0  0  0
  8 31  4  0  0  0  0
M  END
>  <CdId>
467

>  <Mol Weight>
450.89

>  <Formula>
C22H22ClF3N4O

>  <Molecule ChEMBL ID>
CHEMBL4556790

>  <Molecule Max Phase>
None

>  <Molecular Weight>
450.89

>  <#RO5 Violations>
0

>  <AlogP>
3.38

>  <Compound Key>
B5; Hu7691

>  <Standard Type>
IC50

>  <Standard Relation>
'>'

>  <Standard Value>
100000.0

>  <Standard Units>
nM

$$$$

  Mrv2114 03112311372D          

 19 17  0  0  0  0            999 V2000
    0.0000    0.0000    0.0000 Cl  0  0  0  0  0  0  0  0  0  0  0  0
    2.0036    0.0000    0.0000 Cl  0  0  0  0  0  0  0  0  0  0  0  0
    0.0000   -4.2023    0.0000 Cl  0  0  0  0  0  0  0  0  0  0  0  0
    5.4581   -1.6500    0.0000 N   0  0  0  0  0  0  0  0  0  0  0  0
    4.7436   -2.0625    0.0000 C   0  0  0  0  0  0  0  0  0  0  0  0
    4.7436   -2.8875    0.0000 C   0  0  0  0  0  0  0  0  0  0  0  0
    4.7436   -3.7125    0.0000 C   0  0  0  0  0  0  0  0  0  0  0  0
    4.7436   -4.5375    0.0000 C   0  0  0  0  0  0  0  0  0  0  0  0
    5.4581   -4.9500    0.0000 C   0  0  0  0  0  0  0  0  0  0  0  0
    5.4581   -5.7750    0.0000 N   0  0  0  0  0  0  0  0  0  0  0  0
    4.7436   -6.1875    0.0000 C   0  0  0  0  0  0  0  0  0  0  0  0
    4.0291   -5.7750    0.0000 C   0  0  0  0  0  0  0  0  0  0  0  0
    4.0291   -4.9500    0.0000 C   0  0  0  0  0  0  0  0  0  0  0  0
    3.3147   -4.5375    0.0000 C   0  0  0  0  0  0  0  0  0  0  0  0
    2.6002   -4.9500    0.0000 C   0  0  0  0  0  0  0  0  0  0  0  0
    1.8857   -4.5375    0.0000 C   0  0  0  0  0  0  0  0  0  0  0  0
    1.8857   -3.7125    0.0000 N   0  0  0  0  0  0  0  0  0  0  0  0
    2.6002   -3.3000    0.0000 C   0  0  0  0  0  0  0  0  0  0  0  0
    3.3147   -3.7125    0.0000 C   0  0  0  0  0  0  0  0  0  0  0  0
  4  5  1  0  0  0  0
  5  6  1  0  0  0  0
  6  7  3  0  0  0  0
  7  8  1  0  0  0  0
  8  9  4  0  0  0  0
  9 10  4  0  0  0  0
 10 11  4  0  0  0  0
 11 12  4  0  0  0  0
 12 13  4  0  0  0  0
  8 13  4  0  0  0  0
 13 14  1  0  0  0  0
 14 15  4  0  0  0  0
 15 16  4  0  0  0  0
 16 17  4  0  0  0  0
 17 18  4  0  0  0  0
 18 19  4  0  0  0  0
 14 19  4  0  0  0  0
M  END
>  <CdId>
468

>  <Mol Weight>
318.63

>  <Formula>
C13H14Cl3N3

>  <Molecule ChEMBL ID>
CHEMBL4160326

>  <Molecule Max Phase>
None

>  <Molecular Weight>
318.63

>  <#RO5 Violations>
0

>  <AlogP>
1.45

>  <Compound Key>
4o

>  <Standard Type>
IC50

>  <Standard Relation>
'>'

>  <Standard Value>
50000.0

>  <Standard Units>
nM

$$$$

  Mrv2114 03112311372D          

 33 36  0  0  0  0            999 V2000
    2.7512    0.7634    0.0000 C   0  0  0  0  0  0  0  0  0  0  0  0
    2.7512   -0.0616    0.0000 C   0  0  0  0  0  0  0  0  0  0  0  0
    3.4656   -0.4741    0.0000 C   0  0  0  0  0  0  0  0  0  0  0  0
    3.4656   -1.2991    0.0000 C   0  0  0  0  0  0  0  0  0  0  0  0
    2.7512   -1.7116    0.0000 C   0  0  0  0  0  0  0  0  0  0  0  0
    2.7512   -2.5366    0.0000 N   0  0  0  0  0  0  0  0  0  0  0  0
    2.0837   -3.0215    0.0000 N   0  0  0  0  0  0  0  0  0  0  0  0
    2.3387   -3.8062    0.0000 C   0  0  0  0  0  0  0  0  0  0  0  0
    1.8538   -4.4736    0.0000 C   0  0  0  0  0  0  0  0  0  0  0  0
    1.3688   -5.1410    0.0000 C   0  0  0  0  0  0  0  0  0  0  0  0
    1.1863   -3.9887    0.0000 C   0  0  0  0  0  0  0  0  0  0  0  0
    2.5212   -4.9585    0.0000 C   0  0  0  0  0  0  0  0  0  0  0  0
    3.1637   -3.8062    0.0000 C   0  0  0  0  0  0  0  0  0  0  0  0
    3.4186   -3.0215    0.0000 C   0  0  0  0  0  0  0  0  0  0  0  0
    4.2032   -2.7666    0.0000 N   0  0  0  0  0  0  0  0  0  0  0  0
    4.8163   -3.3186    0.0000 C   0  0  0  0  0  0  0  0  0  0  0  0
    4.6448   -4.1256    0.0000 O   0  0  0  0  0  0  0  0  0  0  0  0
    5.6010   -3.0637    0.0000 N   0  0  0  0  0  0  0  0  0  0  0  0
    6.2140   -3.6157    0.0000 C   0  0  0  0  0  0  0  0  0  0  0  0
    6.9987   -3.3608    0.0000 C   0  0  0  0  0  0  0  0  0  0  0  0
    7.6118   -3.9128    0.0000 C   0  0  0  0  0  0  0  0  0  0  0  0
    7.4402   -4.7198    0.0000 C   0  0  0  0  0  0  0  0  0  0  0  0
    8.0533   -5.2718    0.0000 N   0  0  0  0  0  0  0  0  0  0  0  0
    8.8603   -5.1003    0.0000 C   0  0  0  0  0  0  0  0  0  0  0  0
    9.2728   -5.8148    0.0000 N   0  0  0  0  0  0  0  0  0  0  0  0
    8.7208   -6.4279    0.0000 C   0  0  0  0  0  0  0  0  0  0  0  0
    8.8923   -7.2348    0.0000 Cl  0  0  0  0  0  0  0  0  0  0  0  0
    7.9671   -6.0923    0.0000 C   0  0  0  0  0  0  0  0  0  0  0  0
    7.2526   -6.5048    0.0000 Cl  0  0  0  0  0  0  0  0  0  0  0  0
    6.6556   -4.9747    0.0000 C   0  0  0  0  0  0  0  0  0  0  0  0
    6.0425   -4.4227    0.0000 C   0  0  0  0  0  0  0  0  0  0  0  0
    2.0367   -1.2991    0.0000 C   0  0  0  0  0  0  0  0  0  0  0  0
    2.0367   -0.4741    0.0000 C   0  0  0  0  0  0  0  0  0  0  0  0
  1  2  1  0  0  0  0
  2  3  4  0  0  0  0
  3  4  4  0  0  0  0
  4  5  4  0  0  0  0
  5  6  1  0  0  0  0
  6  7  4  0  0  0  0
  7  8  4  0  0  0  0
  8  9  1  0  0  0  0
  9 10  1  0  0  0  0
  9 11  1  0  0  0  0
  9 12  1  0  0  0  0
  8 13  4  0  0  0  0
 13 14  4  0  0  0  0
  6 14  4  0  0  0  0
 14 15  1  0  0  0  0
 15 16  1  0  0  0  0
 16 17  2  0  0  0  0
 16 18  1  0  0  0  0
 18 19  1  0  0  0  0
 19 20  4  0  0  0  0
 20 21  4  0  0  0  0
 21 22  4  0  0  0  0
 22 23  1  0  0  0  0
 23 24  4  0  0  0  0
 24 25  4  0  0  0  0
 25 26  4  0  0  0  0
 26 27  1  0  0  0  0
 26 28  4  0  0  0  0
 23 28  4  0  0  0  0
 28 29  1  0  0  0  0
 22 30  4  0  0  0  0
 30 31  4  0  0  0  0
 19 31  4  0  0  0  0
  5 32  4  0  0  0  0
 32 33  4  0  0  0  0
  2 33  4  0  0  0  0
M  END
>  <CdId>
469

>  <Mol Weight>
483.4

>  <Formula>
C24H24Cl2N6O

>  <Molecule ChEMBL ID>
CHEMBL2425149

>  <Molecule Max Phase>
None

>  <Molecular Weight>
483.4

>  <#RO5 Violations>
1

>  <AlogP>
6.61

>  <Compound Key>
20

>  <Standard Type>
IC50

>  <Standard Relation>
'>'

>  <Standard Value>
10000.0

>  <Standard Units>
nM

$$$$

  Mrv2114 03112311372D          

 22 24  0  0  0  0            999 V2000
   -3.0587    1.4455    0.0000 C   0  0  0  0  0  0  0  0  0  0  0  0
   -2.6462    0.7310    0.0000 C   0  0  0  0  0  0  0  0  0  0  0  0
   -1.8212    0.7310    0.0000 C   0  0  0  0  0  0  0  0  0  0  0  0
   -1.4087    0.0165    0.0000 C   0  0  0  0  0  0  0  0  0  0  0  0
   -0.5837    0.0165    0.0000 C   0  0  0  0  0  0  0  0  0  0  0  0
   -0.1712    0.7310    0.0000 O   0  0  0  0  0  0  0  0  0  0  0  0
   -0.1712   -0.6979    0.0000 N   0  0  0  0  0  0  0  0  0  0  0  0
    0.6538   -0.6979    0.0000 C   0  0  0  0  0  0  0  0  0  0  0  0
    1.1387   -0.0305    0.0000 N   0  0  0  0  0  0  0  0  0  0  0  0
    1.9233   -0.2854    0.0000 C   0  0  0  0  0  0  0  0  0  0  0  0
    2.6378    0.1271    0.0000 C   0  0  0  0  0  0  0  0  0  0  0  0
    3.3523   -0.2854    0.0000 C   0  0  0  0  0  0  0  0  0  0  0  0
    3.3523   -1.1104    0.0000 C   0  0  0  0  0  0  0  0  0  0  0  0
    4.0668   -1.5229    0.0000 Cl  0  0  0  0  0  0  0  0  0  0  0  0
    2.6378   -1.5229    0.0000 C   0  0  0  0  0  0  0  0  0  0  0  0
    1.9233   -1.1104    0.0000 C   0  0  0  0  0  0  0  0  0  0  0  0
    1.1387   -1.3654    0.0000 S   0  0  0  0  0  0  0  0  0  0  0  0
   -1.8212   -0.6979    0.0000 C   0  0  0  0  0  0  0  0  0  0  0  0
   -2.6462   -0.6979    0.0000 C   0  0  0  0  0  0  0  0  0  0  0  0
   -2.5029   -1.5104    0.0000 C   0  0  0  0  0  0  0  0  0  0  0  0
   -3.4214   -0.9801    0.0000 C   0  0  0  0  0  0  0  0  0  0  0  0
   -3.0587    0.0165    0.0000 C   0  0  0  0  0  0  0  0  0  0  0  0
  1  2  1  0  0  0  0
  2  3  1  0  0  0  0
  3  4  1  0  0  0  0
  4  5  1  0  0  0  0
  5  6  2  0  0  0  0
  5  7  1  0  0  0  0
  7  8  1  0  0  0  0
  8  9  4  0  0  0  0
  9 10  4  0  0  0  0
 10 11  4  0  0  0  0
 11 12  4  0  0  0  0
 12 13  4  0  0  0  0
 13 14  1  0  0  0  0
 13 15  4  0  0  0  0
 15 16  4  0  0  0  0
 10 16  4  0  0  0  0
 16 17  4  0  0  0  0
  8 17  4  0  0  0  0
  4 18  1  0  0  0  0
 18 19  1  0  0  0  0
 19 20  1  0  0  0  0
 19 21  1  0  0  0  0
 19 22  1  0  0  0  0
  2 22  1  0  0  0  0
M  END
>  <CdId>
470

>  <Mol Weight>
336.88

>  <Formula>
C17H21ClN2OS

>  <Molecule ChEMBL ID>
CHEMBL4295138

>  <Molecule Max Phase>
None

>  <Molecular Weight>
336.89

>  <#RO5 Violations>
1

>  <AlogP>
5.35

>  <Compound Key>
29

>  <Standard Type>
IC50

>  <Standard Relation>
'>'

>  <Standard Value>
20000.0

>  <Standard Units>
nM

$$$$

  Mrv2114 03112311372D          

 28 31  0  0  0  0            999 V2000
    2.1434   -2.8875    0.0000 C   0  0  0  0  0  0  0  0  0  0  0  0
    1.4289   -2.4750    0.0000 O   0  0  0  0  0  0  0  0  0  0  0  0
    1.4289   -1.6500    0.0000 C   0  0  0  0  0  0  0  0  0  0  0  0
    0.7145   -1.2375    0.0000 C   0  0  0  0  0  0  0  0  0  0  0  0
    0.7145   -0.4125    0.0000 C   0  0  0  0  0  0  0  0  0  0  0  0
    1.4289    0.0000    0.0000 C   0  0  0  0  0  0  0  0  0  0  0  0
    2.1434   -0.4125    0.0000 C   0  0  0  0  0  0  0  0  0  0  0  0
    2.8579    0.0000    0.0000 N   0  0  0  0  0  0  0  0  0  0  0  0
    3.5724   -0.4125    0.0000 C   0  0  0  0  0  0  0  0  0  0  0  0
    3.5724   -1.2375    0.0000 C   0  0  0  0  0  0  0  0  0  0  0  0
    2.8579   -1.6500    0.0000 C   0  0  0  0  0  0  0  0  0  0  0  0
    2.8579   -2.4750    0.0000 N   0  0  0  0  0  0  0  0  0  0  0  0
    3.5724   -2.8875    0.0000 C   0  0  0  0  0  0  0  0  0  0  0  0
    3.5724   -3.7125    0.0000 C   0  0  0  0  0  0  0  0  0  0  0  0
    4.2868   -4.1250    0.0000 C   0  0  0  0  0  0  0  0  0  0  0  0
    4.2868   -4.9500    0.0000 C   0  0  0  0  0  0  0  0  0  0  0  0
    5.0013   -5.3625    0.0000 N   0  0  0  0  0  0  0  0  0  0  0  0
    5.0013   -6.1875    0.0000 C   0  0  0  0  0  0  0  0  0  0  0  0
    5.7158   -6.6000    0.0000 C   0  0  0  0  0  0  0  0  0  0  0  0
    4.2868   -6.6000    0.0000 C   0  0  0  0  0  0  0  0  0  0  0  0
    3.5724   -6.1875    0.0000 C   0  0  0  0  0  0  0  0  0  0  0  0
    3.5724   -5.3625    0.0000 C   0  0  0  0  0  0  0  0  0  0  0  0
    2.8579   -4.9500    0.0000 F   0  0  0  0  0  0  0  0  0  0  0  0
    5.0013   -3.7125    0.0000 N   0  0  0  0  0  0  0  0  0  0  0  0
    5.0013   -2.8875    0.0000 C   0  0  0  0  0  0  0  0  0  0  0  0
    4.2868   -2.4750    0.0000 C   0  0  0  0  0  0  0  0  0  0  0  0
    4.2868   -1.6500    0.0000 C   0  0  0  0  0  0  0  0  0  0  0  0
    2.1434   -1.2375    0.0000 C   0  0  0  0  0  0  0  0  0  0  0  0
  1  2  1  0  0  0  0
  2  3  1  0  0  0  0
  3  4  4  0  0  0  0
  4  5  4  0  0  0  0
  5  6  4  0  0  0  0
  6  7  4  0  0  0  0
  7  8  4  0  0  0  0
  8  9  4  0  0  0  0
  9 10  4  0  0  0  0
 10 11  4  0  0  0  0
 11 12  1  0  0  0  0
 12 13  1  0  0  0  0
 13 14  4  0  0  0  0
 14 15  4  0  0  0  0
 15 16  1  0  0  0  0
 16 17  4  0  0  0  0
 17 18  4  0  0  0  0
 18 19  1  0  0  0  0
 18 20  4  0  0  0  0
 20 21  4  0  0  0  0
 21 22  4  0  0  0  0
 16 22  4  0  0  0  0
 22 23  1  0  0  0  0
 15 24  4  0  0  0  0
 24 25  4  0  0  0  0
 25 26  4  0  0  0  0
 13 26  4  0  0  0  0
 26 27  1  0  0  0  0
 11 28  4  0  0  0  0
  3 28  4  0  0  0  0
  7 28  4  0  0  0  0
M  END
>  <CdId>
471

>  <Mol Weight>
374.419

>  <Formula>
C22H19FN4O

>  <Molecule ChEMBL ID>
CHEMBL4094958

>  <Molecule Max Phase>
None

>  <Molecular Weight>
374.42

>  <#RO5 Violations>
1

>  <AlogP>
5.2

>  <Compound Key>
18

>  <Standard Type>
IC50

>  <Standard Relation>
'='

>  <Standard Value>
2511.89

>  <Standard Units>
nM

$$$$

  Mrv2114 03112311372D          

 21 21  0  0  0  0            999 V2000
    0.0000    0.0000    0.0000 Cl  0  0  0  0  0  0  0  0  0  0  0  0
    2.0036    0.0000    0.0000 Cl  0  0  0  0  0  0  0  0  0  0  0  0
    1.8678   -1.6500    0.0000 N   0  0  0  0  0  0  0  0  0  0  0  0
    1.1534   -2.0625    0.0000 C   0  0  0  0  0  0  0  0  0  0  0  0
    1.1534   -2.8875    0.0000 C   0  0  0  0  0  0  0  0  0  0  0  0
    1.8208   -3.3724    0.0000 C   0  0  0  0  0  0  0  0  0  0  0  0
    1.5659   -4.1570    0.0000 C   0  0  0  0  0  0  0  0  0  0  0  0
    0.7409   -4.1570    0.0000 C   0  0  0  0  0  0  0  0  0  0  0  0
    0.2559   -4.8245    0.0000 C   0  0  0  0  0  0  0  0  0  0  0  0
    0.5915   -5.5782    0.0000 C   0  0  0  0  0  0  0  0  0  0  0  0
    0.1066   -6.2456    0.0000 N   0  0  0  0  0  0  0  0  0  0  0  0
   -0.7139   -6.1594    0.0000 C   0  0  0  0  0  0  0  0  0  0  0  0
   -1.0495   -5.4057    0.0000 C   0  0  0  0  0  0  0  0  0  0  0  0
   -0.5645   -4.7382    0.0000 C   0  0  0  0  0  0  0  0  0  0  0  0
   -0.9001   -3.9846    0.0000 C   0  0  0  0  0  0  0  0  0  0  0  0
   -1.7206   -3.8983    0.0000 C   0  0  0  0  0  0  0  0  0  0  0  0
   -2.0561   -3.1447    0.0000 C   0  0  0  0  0  0  0  0  0  0  0  0
   -1.5712   -2.4772    0.0000 C   0  0  0  0  0  0  0  0  0  0  0  0
   -0.7507   -2.5635    0.0000 C   0  0  0  0  0  0  0  0  0  0  0  0
   -0.4152   -3.3171    0.0000 C   0  0  0  0  0  0  0  0  0  0  0  0
    0.4859   -3.3724    0.0000 O   0  0  0  0  0  0  0  0  0  0  0  0
  3  4  1  0  0  0  0
  4  5  1  0  0  0  0
  5  6  4  0  0  0  0
  6  7  4  0  0  0  0
  7  8  4  0  0  0  0
  8  9  1  0  0  0  0
  9 10  4  0  0  0  0
 10 11  4  0  0  0  0
 11 12  4  0  0  0  0
 12 13  4  0  0  0  0
 13 14  4  0  0  0  0
  9 14  4  0  0  0  0
 14 15  1  0  0  0  0
 15 16  4  0  0  0  0
 16 17  4  0  0  0  0
 17 18  4  0  0  0  0
 18 19  4  0  0  0  0
 19 20  4  0  0  0  0
 15 20  4  0  0  0  0
  8 21  4  0  0  0  0
  5 21  4  0  0  0  0
M  END
>  <CdId>
472

>  <Mol Weight>
323.22

>  <Formula>
C16H16Cl2N2O

>  <Molecule ChEMBL ID>
CHEMBL4159065

>  <Molecule Max Phase>
None

>  <Molecular Weight>
323.22

>  <#RO5 Violations>
0

>  <AlogP>
3.47

>  <Compound Key>
5l

>  <Standard Type>
IC50

>  <Standard Relation>
'='

>  <Standard Value>
5200.0

>  <Standard Units>
nM

$$$$

  Mrv2114 03112311372D          

 28 31  0  0  1  0            999 V2000
    0.0000   -4.9500    0.0000 C   0  0  0  0  0  0  0  0  0  0  0  0
    0.0000   -4.1250    0.0000 O   0  0  0  0  0  0  0  0  0  0  0  0
   -0.7145   -3.7125    0.0000 C   0  0  0  0  0  0  0  0  0  0  0  0
   -1.4289   -4.1250    0.0000 C   0  0  0  0  0  0  0  0  0  0  0  0
   -2.1434   -3.7125    0.0000 C   0  0  0  0  0  0  0  0  0  0  0  0
   -2.1434   -2.8875    0.0000 C   0  0  0  0  0  0  0  0  0  0  0  0
   -1.4289   -2.4750    0.0000 C   0  0  0  0  0  0  0  0  0  0  0  0
   -0.7145   -2.8875    0.0000 C   0  0  0  0  0  0  0  0  0  0  0  0
    0.0000   -2.4750    0.0000 C   0  0  0  0  0  0  0  0  0  0  0  0
    0.0000   -1.6500    0.0000 C   0  0  0  0  0  0  0  0  0  0  0  0
    0.7145   -1.2375    0.0000 C   0  0  2  0  0  0  0  0  0  0  0  0
    0.7145   -0.4125    0.0000 C   0  0  0  0  0  0  0  0  0  0  0  0
    1.4289    0.0000    0.0000 C   0  0  0  0  0  0  0  0  0  0  0  0
    2.1434   -0.4125    0.0000 C   0  0  0  0  0  0  0  0  0  0  0  0
    2.8579    0.0000    0.0000 C   0  0  0  0  0  0  0  0  0  0  0  0
    3.5724   -0.4125    0.0000 C   0  0  0  0  0  0  0  0  0  0  0  0
    4.2868   -0.0000    0.0000 C   0  0  1  0  0  0  0  0  0  0  0  0
    4.3731    0.8205    0.0000 C   0  0  0  0  0  0  0  0  0  0  0  0
    5.1800    0.9920    0.0000 C   0  0  0  0  0  0  0  0  0  0  0  0
    5.5925    0.2775    0.0000 C   0  0  2  0  0  0  0  0  0  0  0  0
    6.2600    0.7625    0.0000 N   0  0  0  0  0  0  0  0  0  0  0  0
    6.1446   -0.3356    0.0000 C   0  0  0  0  0  0  0  0  0  0  0  0
    6.9515   -0.1640    0.0000 O   0  0  0  0  0  0  0  0  0  0  0  0
    5.0405   -0.3356    0.0000 C   0  0  0  0  0  0  0  0  0  0  0  0
    3.5724   -1.2375    0.0000 C   0  0  0  0  0  0  0  0  0  0  0  0
    2.8579   -1.6500    0.0000 C   0  0  0  0  0  0  0  0  0  0  0  0
    2.1434   -1.2375    0.0000 C   0  0  0  0  0  0  0  0  0  0  0  0
    1.4289   -1.6500    0.0000 C   0  0  0  0  0  0  0  0  0  0  0  0
  1  2  1  0  0  0  0
  2  3  1  0  0  0  0
  3  4  4  0  0  0  0
  4  5  4  0  0  0  0
  5  6  4  0  0  0  0
  6  7  4  0  0  0  0
  7  8  4  0  0  0  0
  3  8  4  0  0  0  0
  8  9  1  0  0  0  0
  9 10  1  0  0  0  0
 11 10  1  6  0  0  0
 11 12  1  0  0  0  0
 12 13  1  0  0  0  0
 13 14  1  0  0  0  0
 14 15  4  0  0  0  0
 15 16  4  0  0  0  0
 17 16  1  1  0  0  0
 17 18  1  0  0  0  0
 18 19  1  0  0  0  0
 20 19  1  0  0  0  0
 20 21  1  1  0  0  0
 20 22  1  6  0  0  0
 22 23  1  0  0  0  0
 20 24  1  0  0  0  0
 17 24  1  0  0  0  0
 16 25  4  0  0  0  0
 25 26  4  0  0  0  0
 26 27  4  0  0  0  0
 14 27  4  0  0  0  0
 27 28  1  0  0  0  0
 11 28  1  0  0  0  0
M  END
>  <CdId>
473

>  <Mol Weight>
379.544

>  <Formula>
C25H33NO2

>  <Molecule ChEMBL ID>
CHEMBL4649457

>  <Molecule Name>
UDIFITIMOD

>  <Molecule Max Phase>
2

>  <Molecular Weight>
379.54

>  <#RO5 Violations>
0

>  <AlogP>
4.39

>  <Compound Key>
14a

>  <Standard Type>
IC50

>  <Standard Relation>
'='

>  <Standard Value>
8600.0

>  <Standard Units>
nM

$$$$

  Mrv2114 03112311372D          

 47 51  0  0  1  0            999 V2000
   -0.8543   -2.8347    0.0000 C   0  0  0  0  0  0  0  0  0  0  0  0
   -1.4063   -2.2216    0.0000 O   0  0  0  0  0  0  0  0  0  0  0  0
   -1.1514   -1.4370    0.0000 C   0  0  0  0  0  0  0  0  0  0  0  0
   -1.7034   -0.8239    0.0000 C   0  0  0  0  0  0  0  0  0  0  0  0
   -1.4485   -0.0392    0.0000 C   0  0  0  0  0  0  0  0  0  0  0  0
   -0.6415    0.1323    0.0000 C   0  0  0  0  0  0  0  0  0  0  0  0
   -0.3866    0.9169    0.0000 C   0  0  0  0  0  0  0  0  0  0  0  0
   -0.9386    1.5300    0.0000 C   0  0  0  0  0  0  0  0  0  0  0  0
    0.4204    1.0884    0.0000 C   0  0  0  0  0  0  0  0  0  0  0  0
    0.6754    1.8731    0.0000 C   0  0  0  0  0  0  0  0  0  0  0  0
    0.1233    2.4861    0.0000 O   0  0  0  0  0  0  0  0  0  0  0  0
    1.4823    2.0446    0.0000 O   0  0  0  0  0  0  0  0  0  0  0  0
   -0.0895   -0.4808    0.0000 C   0  0  0  0  0  0  0  0  0  0  0  0
   -0.3444   -1.2654    0.0000 C   0  0  0  0  0  0  0  0  0  0  0  0
    0.2076   -1.8785    0.0000 C   0  0  0  0  0  0  0  0  0  0  0  0
   -0.0473   -2.6631    0.0000 C   0  0  0  0  0  0  0  0  0  0  0  0
    0.5047   -3.2762    0.0000 C   0  0  0  0  0  0  0  0  0  0  0  0
    1.3117   -3.1047    0.0000 C   0  0  0  0  0  0  0  0  0  0  0  0
    1.8637   -3.7178    0.0000 C   0  0  0  0  0  0  0  0  0  0  0  0
    2.4158   -4.3309    0.0000 F   0  0  0  0  0  0  0  0  0  0  0  0
    1.2506   -4.2698    0.0000 F   0  0  0  0  0  0  0  0  0  0  0  0
    2.4768   -3.1658    0.0000 F   0  0  0  0  0  0  0  0  0  0  0  0
    1.5666   -2.3201    0.0000 C   0  0  0  0  0  0  0  0  0  0  0  0
    1.0146   -1.7070    0.0000 C   0  0  0  0  0  0  0  0  0  0  0  0
    1.2695   -0.9224    0.0000 C   0  0  2  0  0  0  0  0  0  0  0  0
    0.7846   -0.2549    0.0000 C   0  0  0  0  0  0  0  0  0  0  0  0
    1.2695    0.4125    0.0000 C   0  0  0  0  0  0  0  0  0  0  0  0
    2.0542    0.1576    0.0000 C   0  0  1  0  0  0  0  0  0  0  0  0
    2.8388    0.4125    0.0000 C   0  0  1  0  0  0  0  0  0  0  0  0
    3.0937    1.1971    0.0000 C   0  0  0  0  0  0  0  0  0  0  0  0
    2.5417    1.8102    0.0000 C   0  0  0  0  0  0  0  0  0  0  0  0
    2.7966    2.5948    0.0000 C   0  0  0  0  0  0  0  0  0  0  0  0
    2.2446    3.2079    0.0000 C   0  0  0  0  0  0  0  0  0  0  0  0
    1.6926    3.8210    0.0000 F   0  0  0  0  0  0  0  0  0  0  0  0
    2.8577    3.7600    0.0000 F   0  0  0  0  0  0  0  0  0  0  0  0
    1.6315    2.6559    0.0000 F   0  0  0  0  0  0  0  0  0  0  0  0
    3.6036    2.7664    0.0000 C   0  0  0  0  0  0  0  0  0  0  0  0
    4.1556    2.1533    0.0000 C   0  0  0  0  0  0  0  0  0  0  0  0
    4.9626    2.3248    0.0000 C   0  0  0  0  0  0  0  0  0  0  0  0
    5.7696    2.4963    0.0000 F   0  0  0  0  0  0  0  0  0  0  0  0
    5.1341    1.5178    0.0000 F   0  0  0  0  0  0  0  0  0  0  0  0
    4.7911    3.1318    0.0000 F   0  0  0  0  0  0  0  0  0  0  0  0
    3.9007    1.3686    0.0000 C   0  0  0  0  0  0  0  0  0  0  0  0
    3.3237   -0.2549    0.0000 O   0  0  0  0  0  0  0  0  0  0  0  0
    2.8388   -0.9224    0.0000 C   0  0  0  0  0  0  0  0  0  0  0  0
    3.0937   -1.7070    0.0000 O   0  0  0  0  0  0  0  0  0  0  0  0
    2.0542   -0.6674    0.0000 N   0  0  0  0  0  0  0  0  0  0  0  0
  1  2  1  0  0  0  0
  2  3  1  0  0  0  0
  3  4  4  0  0  0  0
  4  5  4  0  0  0  0
  5  6  4  0  0  0  0
  6  7  1  0  0  0  0
  7  8  1  0  0  0  0
  7  9  1  0  0  0  0
  9 10  1  0  0  0  0
 10 11  2  0  0  0  0
 10 12  1  0  0  0  0
  6 13  4  0  0  0  0
 13 14  4  0  0  0  0
  3 14  4  0  0  0  0
 14 15  1  0  0  0  0
 15 16  4  0  0  0  0
 16 17  4  0  0  0  0
 17 18  4  0  0  0  0
 18 19  1  0  0  0  0
 19 20  1  0  0  0  0
 19 21  1  0  0  0  0
 19 22  1  0  0  0  0
 18 23  4  0  0  0  0
 23 24  4  0  0  0  0
 15 24  4  0  0  0  0
 25 24  1  6  0  0  0
 25 26  1  0  0  0  0
 26 27  1  0  0  0  0
 28 27  1  0  0  0  0
 28 29  1  0  0  0  0
 29 30  1  1  0  0  0
 30 31  4  0  0  0  0
 31 32  4  0  0  0  0
 32 33  1  0  0  0  0
 33 34  1  0  0  0  0
 33 35  1  0  0  0  0
 33 36  1  0  0  0  0
 32 37  4  0  0  0  0
 37 38  4  0  0  0  0
 38 39  1  0  0  0  0
 39 40  1  0  0  0  0
 39 41  1  0  0  0  0
 39 42  1  0  0  0  0
 38 43  4  0  0  0  0
 30 43  4  0  0  0  0
 29 44  1  0  0  0  0
 44 45  1  0  0  0  0
 45 46  2  0  0  0  0
 45 47  1  0  0  0  0
 25 47  1  0  0  0  0
 28 47  1  1  0  0  0
M  END
>  <CdId>
474

>  <Mol Weight>
675.548

>  <Formula>
C32H26F9NO5

>  <Molecule ChEMBL ID>
CHEMBL4860512

>  <Molecule Max Phase>
None

>  <Molecular Weight>
675.54

>  <#RO5 Violations>
2

>  <AlogP>
9.39

>  <Compound Key>
93

>  <Standard Type>
IC50

$$$$

  Mrv2114 03112311372D          

 26 29  0  0  0  0            999 V2000
    6.8513   -2.4750    0.0000 C   0  0  0  0  0  0  0  0  0  0  0  0
    6.1368   -2.8875    0.0000 C   0  0  0  0  0  0  0  0  0  0  0  0
    6.1368   -3.7125    0.0000 C   0  0  0  0  0  0  0  0  0  0  0  0
    5.4223   -4.1250    0.0000 C   0  0  0  0  0  0  0  0  0  0  0  0
    5.4223   -4.9500    0.0000 N   0  0  0  0  0  0  0  0  0  0  0  0
    6.1368   -5.3625    0.0000 C   0  0  0  0  0  0  0  0  0  0  0  0
    6.8513   -4.9500    0.0000 C   0  0  0  0  0  0  0  0  0  0  0  0
    7.5658   -5.3625    0.0000 C   0  0  0  0  0  0  0  0  0  0  0  0
    7.5658   -6.1875    0.0000 C   0  0  0  0  0  0  0  0  0  0  0  0
    8.2802   -6.6000    0.0000 C   0  0  0  0  0  0  0  0  0  0  0  0
    8.2802   -7.4250    0.0000 C   0  0  0  0  0  0  0  0  0  0  0  0
    7.5658   -7.8375    0.0000 C   0  0  0  0  0  0  0  0  0  0  0  0
    7.5658   -8.6625    0.0000 Br  0  0  0  0  0  0  0  0  0  0  0  0
    6.8513   -7.4250    0.0000 C   0  0  0  0  0  0  0  0  0  0  0  0
    6.8513   -6.6000    0.0000 C   0  0  0  0  0  0  0  0  0  0  0  0
    6.1368   -6.1875    0.0000 C   0  0  0  0  0  0  0  0  0  0  0  0
    4.7079   -3.7125    0.0000 N   0  0  0  0  0  0  0  0  0  0  0  0
    3.9232   -3.9674    0.0000 N   0  0  0  0  0  0  0  0  0  0  0  0
    3.4383   -3.3000    0.0000 C   0  0  0  0  0  0  0  0  0  0  0  0
    2.6133   -3.3000    0.0000 C   0  0  0  0  0  0  0  0  0  0  0  0
    1.7883   -3.3000    0.0000 C   0  0  0  0  0  0  0  0  0  0  0  0
    2.6133   -2.4750    0.0000 F   0  0  0  0  0  0  0  0  0  0  0  0
    2.6133   -4.1250    0.0000 F   0  0  0  0  0  0  0  0  0  0  0  0
    3.9232   -2.6326    0.0000 N   0  0  0  0  0  0  0  0  0  0  0  0
    4.7079   -2.8875    0.0000 C   0  0  0  0  0  0  0  0  0  0  0  0
    5.4223   -2.4750    0.0000 N   0  0  0  0  0  0  0  0  0  0  0  0
  1  2  1  0  0  0  0
  2  3  4  0  0  0  0
  3  4  4  0  0  0  0
  4  5  1  0  0  0  0
  5  6  1  0  0  0  0
  6  7  1  0  0  0  0
  7  8  1  0  0  0  0
  8  9  1  0  0  0  0
  9 10  4  0  0  0  0
 10 11  4  0  0  0  0
 11 12  4  0  0  0  0
 12 13  1  0  0  0  0
 12 14  4  0  0  0  0
 14 15  4  0  0  0  0
  9 15  4  0  0  0  0
 15 16  1  0  0  0  0
  6 16  1  0  0  0  0
  4 17  4  0  0  0  0
 17 18  4  0  0  0  0
 18 19  4  0  0  0  0
 19 20  1  0  0  0  0
 20 21  1  0  0  0  0
 20 22  1  0  0  0  0
 20 23  1  0  0  0  0
 19 24  4  0  0  0  0
 24 25  4  0  0  0  0
 17 25  4  0  0  0  0
 25 26  4  0  0  0  0
  2 26  4  0  0  0  0
M  END
>  <CdId>
475

>  <Mol Weight>
422.278

>  <Formula>
C18H18BrF2N5

>  <Molecule ChEMBL ID>
CHEMBL4753862

>  <Molecule Max Phase>
None

>  <Molecular Weight>
422.28

>  <#RO5 Violations>
0

>  <AlogP>
4.28

>  <Compound Key>
13; DSM422

>  <Standard Type>
IC50

>  <Standard Relation>
'='

>  <Standard Value>
16900.0

>  <Standard Units>
nM

$$$$

  Mrv2114 03112311372D          

 26 29  0  0  0  0            999 V2000
    6.8513   -2.4750    0.0000 C   0  0  0  0  0  0  0  0  0  0  0  0
    6.1368   -2.8875    0.0000 C   0  0  0  0  0  0  0  0  0  0  0  0
    6.1368   -3.7125    0.0000 C   0  0  0  0  0  0  0  0  0  0  0  0
    5.4223   -4.1250    0.0000 C   0  0  0  0  0  0  0  0  0  0  0  0
    5.4223   -4.9500    0.0000 N   0  0  0  0  0  0  0  0  0  0  0  0
    6.1368   -5.3625    0.0000 C   0  0  0  0  0  0  0  0  0  0  0  0
    6.8513   -4.9500    0.0000 C   0  0  0  0  0  0  0  0  0  0  0  0
    7.5658   -5.3625    0.0000 C   0  0  0  0  0  0  0  0  0  0  0  0
    7.5658   -6.1875    0.0000 C   0  0  0  0  0  0  0  0  0  0  0  0
    8.2802   -6.6000    0.0000 C   0  0  0  0  0  0  0  0  0  0  0  0
    8.2802   -7.4250    0.0000 C   0  0  0  0  0  0  0  0  0  0  0  0
    8.9947   -7.8375    0.0000 Br  0  0  0  0  0  0  0  0  0  0  0  0
    7.5658   -7.8375    0.0000 C   0  0  0  0  0  0  0  0  0  0  0  0
    6.8513   -7.4250    0.0000 C   0  0  0  0  0  0  0  0  0  0  0  0
    6.8513   -6.6000    0.0000 C   0  0  0  0  0  0  0  0  0  0  0  0
    6.1368   -6.1875    0.0000 C   0  0  0  0  0  0  0  0  0  0  0  0
    4.7079   -3.7125    0.0000 N   0  0  0  0  0  0  0  0  0  0  0  0
    3.9232   -3.9674    0.0000 N   0  0  0  0  0  0  0  0  0  0  0  0
    3.4383   -3.3000    0.0000 C   0  0  0  0  0  0  0  0  0  0  0  0
    2.6133   -3.3000    0.0000 C   0  0  0  0  0  0  0  0  0  0  0  0
    1.7883   -3.3000    0.0000 C   0  0  0  0  0  0  0  0  0  0  0  0
    2.6133   -2.4750    0.0000 F   0  0  0  0  0  0  0  0  0  0  0  0
    2.6133   -4.1250    0.0000 F   0  0  0  0  0  0  0  0  0  0  0  0
    3.9232   -2.6326    0.0000 N   0  0  0  0  0  0  0  0  0  0  0  0
    4.7079   -2.8875    0.0000 C   0  0  0  0  0  0  0  0  0  0  0  0
    5.4223   -2.4750    0.0000 N   0  0  0  0  0  0  0  0  0  0  0  0
  1  2  1  0  0  0  0
  2  3  4  0  0  0  0
  3  4  4  0  0  0  0
  4  5  1  0  0  0  0
  5  6  1  0  0  0  0
  6  7  1  0  0  0  0
  7  8  1  0  0  0  0
  8  9  1  0  0  0  0
  9 10  4  0  0  0  0
 10 11  4  0  0  0  0
 11 12  1  0  0  0  0
 11 13  4  0  0  0  0
 13 14  4  0  0  0  0
 14 15  4  0  0  0  0
  9 15  4  0  0  0  0
 15 16  1  0  0  0  0
  6 16  1  0  0  0  0
  4 17  4  0  0  0  0
 17 18  4  0  0  0  0
 18 19  4  0  0  0  0
 19 20  1  0  0  0  0
 20 21  1  0  0  0  0
 20 22  1  0  0  0  0
 20 23  1  0  0  0  0
 19 24  4  0  0  0  0
 24 25  4  0  0  0  0
 17 25  4  0  0  0  0
 25 26  4  0  0  0  0
  2 26  4  0  0  0  0
M  END
>  <CdId>
476

>  <Mol Weight>
422.278

>  <Formula>
C18H18BrF2N5

>  <Molecule ChEMBL ID>
CHEMBL4747214

>  <Molecule Max Phase>
None

>  <Molecular Weight>
422.28

>  <#RO5 Violations>
0

>  <AlogP>
4.28

>  <Compound Key>
11; DSM416

>  <Standard Type>
IC50

>  <Standard Relation>
'='

>  <Standard Value>
18700.0

>  <Standard Units>
nM

$$$$

  Mrv2114 03112311372D          

 44 49  0  0  1  0            999 V2000
   -3.5724   -7.0125    0.0000 C   0  0  0  0  0  0  0  0  0  0  0  0
   -3.5724   -6.1875    0.0000 N   0  0  0  0  0  0  0  0  0  0  0  0
   -2.8579   -5.7750    0.0000 C   0  0  1  0  0  0  0  0  0  0  0  0
   -2.1434   -6.1875    0.0000 C   0  0  0  0  0  0  0  0  0  0  0  0
   -2.8579   -4.9500    0.0000 C   0  0  0  0  0  0  0  0  0  0  0  0
   -3.5724   -4.5375    0.0000 O   0  0  0  0  0  0  0  0  0  0  0  0
   -2.1434   -4.5375    0.0000 N   0  0  0  0  0  0  0  0  0  0  0  0
   -2.1434   -3.7125    0.0000 C   0  0  0  0  0  0  0  0  0  0  0  0
   -2.8579   -3.3000    0.0000 C   0  0  0  0  0  0  0  0  0  0  0  0
   -2.8579   -2.4750    0.0000 C   0  0  0  0  0  0  0  0  0  0  0  0
   -2.1434   -2.0625    0.0000 C   0  0  0  0  0  0  0  0  0  0  0  0
   -2.1434   -1.2375    0.0000 C   0  0  0  0  0  0  0  0  0  0  0  0
   -2.8109   -0.7526    0.0000 C   0  0  0  0  0  0  0  0  0  0  0  0
   -3.5955   -1.0075    0.0000 C   0  0  0  0  0  0  0  0  0  0  0  0
   -3.7670   -1.8145    0.0000 C   0  0  0  0  0  0  0  0  0  0  0  0
   -4.5516   -2.0694    0.0000 C   0  0  0  0  0  0  0  0  0  0  0  0
   -5.1647   -1.5174    0.0000 C   0  0  0  0  0  0  0  0  0  0  0  0
   -4.9932   -0.7104    0.0000 N   0  0  0  0  0  0  0  0  0  0  0  0
   -4.2086   -0.4555    0.0000 C   0  0  0  0  0  0  0  0  0  0  0  0
   -4.0370    0.3515    0.0000 O   0  0  0  0  0  0  0  0  0  0  0  0
   -3.2524    0.6064    0.0000 C   0  0  0  0  0  0  0  0  0  0  0  0
   -2.5559    0.0320    0.0000 N   0  0  0  0  0  0  0  0  0  0  0  0
   -1.7309    0.0320    0.0000 C   0  0  0  0  0  0  0  0  0  0  0  0
   -1.1789    0.6451    0.0000 C   0  0  0  0  0  0  0  0  0  0  0  0
   -0.3719    0.4736    0.0000 C   0  0  0  0  0  0  0  0  0  0  0  0
    0.1801    1.0867    0.0000 Cl  0  0  0  0  0  0  0  0  0  0  0  0
   -0.1170   -0.3110    0.0000 C   0  0  0  0  0  0  0  0  0  0  0  0
   -0.6690   -0.9241    0.0000 C   0  0  0  0  0  0  0  0  0  0  0  0
   -1.4760   -0.7526    0.0000 N   0  0  0  0  0  0  0  0  0  0  0  0
   -1.4289   -2.4750    0.0000 C   0  0  0  0  0  0  0  0  0  0  0  0
   -0.7145   -2.0625    0.0000 C   0  0  0  0  0  0  0  0  0  0  0  0
    0.0000   -1.6500    0.0000 C   0  0  0  0  0  0  0  0  0  0  0  0
    0.7145   -1.2375    0.0000 C   0  0  0  0  0  0  0  0  0  0  0  0
    0.7145   -0.4125    0.0000 C   0  0  0  0  0  0  0  0  0  0  0  0
    1.4289    0.0000    0.0000 C   0  0  0  0  0  0  0  0  0  0  0  0
    2.1434   -0.4125    0.0000 C   0  0  0  0  0  0  0  0  0  0  0  0
    2.8579    0.0000    0.0000 C   0  0  0  0  0  0  0  0  0  0  0  0
    2.8579    0.8250    0.0000 C   0  0  0  0  0  0  0  0  0  0  0  0
    3.5724   -0.4125    0.0000 N   0  0  0  0  0  0  0  0  0  0  0  0
    3.5724   -1.2375    0.0000 C   0  0  0  0  0  0  0  0  0  0  0  0
    2.8579   -1.6500    0.0000 C   0  0  0  0  0  0  0  0  0  0  0  0
    2.1434   -1.2375    0.0000 C   0  0  0  0  0  0  0  0  0  0  0  0
    1.4289   -1.6500    0.0000 C   0  0  0  0  0  0  0  0  0  0  0  0
   -1.4289   -3.3000    0.0000 N   0  0  0  0  0  0  0  0  0  0  0  0
  1  2  1  0  0  0  0
  3  2  1  0  0  0  0
  3  4  1  6  0  0  0
  3  5  1  0  0  0  0
  5  6  2  0  0  0  0
  5  7  1  0  0  0  0
  7  8  1  0  0  0  0
  8  9  4  0  0  0  0
  9 10  4  0  0  0  0
 10 11  4  0  0  0  0
 11 12  1  0  0  0  0
 12 13  4  0  0  0  0
 13 14  1  0  0  0  0
 14 15  4  0  0  0  0
 15 16  4  0  0  0  0
 16 17  4  0  0  0  0
 17 18  4  0  0  0  0
 18 19  4  0  0  0  0
 14 19  4  0  0  0  0
 19 20  1  0  0  0  0
 20 21  1  0  0  0  0
 13 22  4  0  0  0  0
 22 23  4  0  0  0  0
 23 24  4  0  0  0  0
 24 25  4  0  0  0  0
 25 26  1  0  0  0  0
 25 27  4  0  0  0  0
 27 28  4  0  0  0  0
 28 29  4  0  0  0  0
 12 29  4  0  0  0  0
 23 29  4  0  0  0  0
 11 30  4  0  0  0  0
 30 31  1  0  0  0  0
 31 32  3  0  0  0  0
 32 33  1  0  0  0  0
 33 34  4  0  0  0  0
 34 35  4  0  0  0  0
 35 36  4  0  0  0  0
 36 37  4  0  0  0  0
 37 38  1  0  0  0  0
 37 39  4  0  0  0  0
 39 40  4  0  0  0  0
 40 41  4  0  0  0  0
 41 42  4  0  0  0  0
 36 42  4  0  0  0  0
 42 43  4  0  0  0  0
 33 43  4  0  0  0  0
 30 44  4  0  0  0  0
  8 44  4  0  0  0  0
M  END
>  <CdId>
477

>  <Mol Weight>
602.1

>  <Formula>
C34H28ClN7O2

>  <Molecule ChEMBL ID>
CHEMBL3974300

>  <Molecule Max Phase>
None

>  <Molecular Weight>
602.1

>  <#RO5 Violations>
2

>  <AlogP>
5.92

>  <Compound Key>
BDBM254005

>  <Standard Type>
IC50

>  <Standard Relation>
'='

>  <Standard Value>
2200.0

>  <Standard Units>
nM

$$$$

  Mrv2114 03112311372D          

 23 26  0  0  1  0            999 V2000
   -0.7145   -2.8875    0.0000 C   0  0  0  0  0  0  0  0  0  0  0  0
    0.0000   -2.4750    0.0000 N   0  0  0  0  0  0  0  0  0  0  0  0
    0.0000   -1.6500    0.0000 C   0  0  0  0  0  0  0  0  0  0  0  0
   -0.7145   -1.2375    0.0000 O   0  0  0  0  0  0  0  0  0  0  0  0
    0.7145   -1.2375    0.0000 C   0  0  0  0  0  0  0  0  0  0  0  0
    0.7145   -0.4125    0.0000 C   0  0  0  0  0  0  0  0  0  0  0  0
    1.4289    0.0000    0.0000 C   0  0  0  0  0  0  0  0  0  0  0  0
    2.1434   -0.4125    0.0000 C   0  0  0  0  0  0  0  0  0  0  0  0
    2.8579    0.0000    0.0000 C   0  0  0  0  0  0  0  0  0  0  0  0
    3.5724   -0.4125    0.0000 C   0  0  0  0  0  0  0  0  0  0  0  0
    4.2868   -0.0000    0.0000 C   0  0  1  0  0  0  0  0  0  0  0  0
    4.6224   -0.7537    0.0000 O   0  0  0  0  0  0  0  0  0  0  0  0
    3.8019    0.6674    0.0000 C   0  0  0  0  0  0  0  0  0  0  0  0
    4.2868    1.3349    0.0000 C   0  0  0  0  0  0  0  0  0  0  0  0
    5.0714    1.0799    0.0000 N   0  0  0  0  0  0  0  0  0  0  0  0
    5.8561    1.3349    0.0000 C   0  0  0  0  0  0  0  0  0  0  0  0
    6.3410    0.6674    0.0000 N   0  0  0  0  0  0  0  0  0  0  0  0
    5.8561   -0.0000    0.0000 C   0  0  0  0  0  0  0  0  0  0  0  0
    5.0714    0.2549    0.0000 C   0  0  0  0  0  0  0  0  0  0  0  0
    3.5724   -1.2375    0.0000 C   0  0  0  0  0  0  0  0  0  0  0  0
    2.8579   -1.6500    0.0000 C   0  0  0  0  0  0  0  0  0  0  0  0
    2.1434   -1.2375    0.0000 C   0  0  0  0  0  0  0  0  0  0  0  0
    1.4289   -1.6500    0.0000 C   0  0  0  0  0  0  0  0  0  0  0  0
  1  2  1  0  0  0  0
  2  3  1  0  0  0  0
  3  4  2  0  0  0  0
  3  5  1  0  0  0  0
  5  6  4  0  0  0  0
  6  7  4  0  0  0  0
  7  8  4  0  0  0  0
  8  9  4  0  0  0  0
  9 10  4  0  0  0  0
 11 10  1  1  0  0  0
 11 12  1  6  0  0  0
 11 13  1  0  0  0  0
 13 14  1  0  0  0  0
 14 15  1  0  0  0  0
 15 16  4  0  0  0  0
 16 17  4  0  0  0  0
 17 18  4  0  0  0  0
 18 19  4  0  0  0  0
 15 19  4  0  0  0  0
 11 19  1  0  0  0  0
 10 20  4  0  0  0  0
 20 21  4  0  0  0  0
 21 22  4  0  0  0  0
  8 22  4  0  0  0  0
 22 23  4  0  0  0  0
  5 23  4  0  0  0  0
M  END
>  <CdId>
478

>  <Mol Weight>
307.353

>  <Formula>
C18H17N3O2

>  <Molecule ChEMBL ID>
CHEMBL1921976

>  <Molecule Name>
ORTERONEL

>  <Molecule Max Phase>
3

>  <Molecular Weight>
307.35

>  <#RO5 Violations>
0

>  <AlogP>
2.04

>  <Compound Key>
(+)-3c, TAK-700

>  <Standard Type>
IC50

>  <Standard Relation>
'>'

>  <Standard Value>
30000.0

>  <Standard Units>
nM

$$$$

  Mrv2114 03112311372D          

 30 33  0  0  1  0            999 V2000
    4.2135   -0.1271    0.0000 C   0  0  0  0  0  0  0  0  0  0  0  0
    4.2135    0.6979    0.0000 C   0  0  0  0  0  0  0  0  0  0  0  0
    3.4990    1.1104    0.0000 C   0  0  0  0  0  0  0  0  0  0  0  0
    2.7845    0.6979    0.0000 C   0  0  0  0  0  0  0  0  0  0  0  0
    2.7845   -0.1271    0.0000 O   0  0  0  0  0  0  0  0  0  0  0  0
    2.0701    1.1104    0.0000 N   0  0  0  0  0  0  0  0  0  0  0  0
    1.3556    0.6979    0.0000 C   0  0  0  0  0  0  0  0  0  0  0  0
    0.6411    1.1104    0.0000 C   0  0  0  0  0  0  0  0  0  0  0  0
   -0.1435    0.8555    0.0000 N   0  0  0  0  0  0  0  0  0  0  0  0
   -0.6284    1.5229    0.0000 N   0  0  0  0  0  0  0  0  0  0  0  0
   -0.1435    2.1904    0.0000 N   0  0  0  0  0  0  0  0  0  0  0  0
   -0.3984    2.9750    0.0000 C   0  0  0  0  0  0  0  0  0  0  0  0
   -1.2054    3.1465    0.0000 N   0  0  0  0  0  0  0  0  0  0  0  0
   -1.4604    3.9312    0.0000 C   0  0  0  0  0  0  0  0  0  0  0  0
   -0.9083    4.5442    0.0000 C   0  0  0  0  0  0  0  0  0  0  0  0
   -1.1633    5.3289    0.0000 F   0  0  0  0  0  0  0  0  0  0  0  0
   -0.1014    4.3727    0.0000 C   0  0  0  0  0  0  0  0  0  0  0  0
    0.1536    3.5881    0.0000 N   0  0  0  0  0  0  0  0  0  0  0  0
    0.6411    1.9354    0.0000 C   0  0  0  0  0  0  0  0  0  0  0  0
    1.3556    2.3479    0.0000 C   0  0  0  0  0  0  0  0  0  0  0  0
    2.0701    1.9354    0.0000 C   0  0  2  0  0  0  0  0  0  0  0  0
    2.7845    2.3479    0.0000 C   0  0  0  0  0  0  0  0  0  0  0  0
    3.4990    1.9354    0.0000 C   0  0  0  0  0  0  0  0  0  0  0  0
    4.2135    2.3479    0.0000 C   0  0  0  0  0  0  0  0  0  0  0  0
    4.9279    1.9354    0.0000 N   0  0  0  0  0  0  0  0  0  0  0  0
    4.9279    1.1104    0.0000 C   0  0  0  0  0  0  0  0  0  0  0  0
    5.6424    0.6979    0.0000 C   0  0  0  0  0  0  0  0  0  0  0  0
    6.3569    0.2854    0.0000 F   0  0  0  0  0  0  0  0  0  0  0  0
    5.2299   -0.0165    0.0000 F   0  0  0  0  0  0  0  0  0  0  0  0
    6.0549    1.4124    0.0000 F   0  0  0  0  0  0  0  0  0  0  0  0
  1  2  1  0  0  0  0
  2  3  4  0  0  0  0
  3  4  1  0  0  0  0
  4  5  2  0  0  0  0
  4  6  1  0  0  0  0
  6  7  1  0  0  0  0
  7  8  1  0  0  0  0
  8  9  4  0  0  0  0
  9 10  4  0  0  0  0
 10 11  4  0  0  0  0
 11 12  1  0  0  0  0
 12 13  4  0  0  0  0
 13 14  4  0  0  0  0
 14 15  4  0  0  0  0
 15 16  1  0  0  0  0
 15 17  4  0  0  0  0
 17 18  4  0  0  0  0
 12 18  4  0  0  0  0
 11 19  4  0  0  0  0
  8 19  4  0  0  0  0
 19 20  1  0  0  0  0
 21 20  1  0  0  0  0
 21  6  1  0  0  0  0
 21 22  1  6  0  0  0
  3 23  4  0  0  0  0
 23 24  4  0  0  0  0
 24 25  4  0  0  0  0
 25 26  4  0  0  0  0
  2 26  4  0  0  0  0
 26 27  1  0  0  0  0
 27 28  1  0  0  0  0
 27 29  1  0  0  0  0
 27 30  1  0  0  0  0
M  END
>  <CdId>
479

>  <Mol Weight>
421.36

>  <Formula>
C18H15F4N7O

>  <Molecule ChEMBL ID>
CHEMBL3936866

>  <Molecule Max Phase>
None

>  <Molecular Weight>
421.36

>  <#RO5 Violations>
0

>  <AlogP>
2.51

>  <Compound Key>
37

>  <Standard Type>
IC50

>  <Standard Relation>
'>'

>  <Standard Value>
10000.0

>  <Standard Units>
nM

$$$$

  Mrv2114 03112311372D          

 17 19  0  0  0  0            999 V2000
    4.0668    2.3479    0.0000 N   0  0  0  0  0  0  0  0  0  0  0  0
    3.3523    1.9354    0.0000 C   0  0  0  0  0  0  0  0  0  0  0  0
    3.3523    1.1104    0.0000 C   0  0  0  0  0  0  0  0  0  0  0  0
    2.6378    0.6979    0.0000 C   0  0  0  0  0  0  0  0  0  0  0  0
    2.6378   -0.1271    0.0000 C   0  0  0  0  0  0  0  0  0  0  0  0
    1.9233   -0.5396    0.0000 C   0  0  0  0  0  0  0  0  0  0  0  0
    1.9233   -1.3646    0.0000 C   0  0  0  0  0  0  0  0  0  0  0  0
    1.2089   -1.7771    0.0000 C   0  0  0  0  0  0  0  0  0  0  0  0
    0.4944   -1.3646    0.0000 C   0  0  0  0  0  0  0  0  0  0  0  0
    0.4944   -0.5396    0.0000 C   0  0  0  0  0  0  0  0  0  0  0  0
    1.2089   -0.1271    0.0000 C   0  0  0  0  0  0  0  0  0  0  0  0
    1.9233    1.1104    0.0000 C   0  0  0  0  0  0  0  0  0  0  0  0
    1.1387    0.8555    0.0000 N   0  0  0  0  0  0  0  0  0  0  0  0
    0.6538    1.5229    0.0000 N   0  0  0  0  0  0  0  0  0  0  0  0
    1.1387    2.1904    0.0000 N   0  0  0  0  0  0  0  0  0  0  0  0
    1.9233    1.9354    0.0000 C   0  0  0  0  0  0  0  0  0  0  0  0
    2.6378    2.3479    0.0000 N   0  0  0  0  0  0  0  0  0  0  0  0
  1  2  1  0  0  0  0
  2  3  4  0  0  0  0
  3  4  4  0  0  0  0
  4  5  1  0  0  0  0
  5  6  1  0  0  0  0
  6  7  4  0  0  0  0
  7  8  4  0  0  0  0
  8  9  4  0  0  0  0
  9 10  4  0  0  0  0
 10 11  4  0  0  0  0
  6 11  4  0  0  0  0
  4 12  4  0  0  0  0
 12 13  4  0  0  0  0
 13 14  4  0  0  0  0
 14 15  4  0  0  0  0
 15 16  4  0  0  0  0
 12 16  4  0  0  0  0
 16 17  4  0  0  0  0
  2 17  4  0  0  0  0
M  STY  1   1 DAT
M  SAL   1  1  15
M  SDT   1 MRV_IMPLICIT_H                                        
M  SDD   1     0.0000    0.0000    DR    ALL  0       0  
M  SED   1 IMPL_H1
M  END
>  <CdId>
480

>  <Mol Weight>
225.255

>  <Formula>
C12H11N5

>  <Molecule ChEMBL ID>
CHEMBL4753981

>  <Molecule Max Phase>
None

>  <Molecular Weight>
225.25

>  <#RO5 Violations>
0

>  <AlogP>
1.53

>  <Compound Key>
12

>  <Standard Type>
IC50

>  <Standard Relation>
'>'

>  <Standard Value>
10000.0

>  <Standard Units>
nM

$$$$

  Mrv2114 03112311372D          

 25 28  0  0  1  0            999 V2000
    5.8128   -0.0510    0.0000 C   0  0  0  0  0  0  0  0  0  0  0  0
    5.0983   -0.4635    0.0000 C   0  0  1  0  0  0  0  0  0  0  0  0
    4.8848   -1.2604    0.0000 C   0  0  0  0  0  0  0  0  0  0  0  0
    4.0879   -1.0469    0.0000 C   0  0  0  0  0  0  0  0  0  0  0  0
    4.3014   -0.2500    0.0000 N   0  0  0  0  0  0  0  0  0  0  0  0
    3.8889    0.4645    0.0000 C   0  0  0  0  0  0  0  0  0  0  0  0
    3.0639    0.4645    0.0000 N   0  0  0  0  0  0  0  0  0  0  0  0
    2.6514    1.1790    0.0000 C   0  0  0  0  0  0  0  0  0  0  0  0
    1.8264    1.1790    0.0000 N   0  0  0  0  0  0  0  0  0  0  0  0
    1.3415    0.5115    0.0000 C   0  0  0  0  0  0  0  0  0  0  0  0
    0.5569    0.7665    0.0000 C   0  0  2  0  0  0  0  0  0  0  0  0
   -0.1576    1.1790    0.0000 C   0  0  1  0  0  0  0  0  0  0  0  0
   -0.9826    1.1790    0.0000 C   0  0  0  0  0  0  0  0  0  0  0  0
   -1.3951    1.8934    0.0000 C   0  0  0  0  0  0  0  0  0  0  0  0
   -2.2201    1.8934    0.0000 O   0  0  0  0  0  0  0  0  0  0  0  0
   -0.9826    2.6079    0.0000 O   0  0  0  0  0  0  0  0  0  0  0  0
    0.5569    1.5915    0.0000 C   0  0  2  0  0  0  0  0  0  0  0  0
    1.3415    1.8464    0.0000 C   0  0  0  0  0  0  0  0  0  0  0  0
    3.0639    1.8934    0.0000 C   0  0  0  0  0  0  0  0  0  0  0  0
    3.8889    1.8934    0.0000 C   0  0  0  0  0  0  0  0  0  0  0  0
    4.3014    2.6079    0.0000 C   0  0  0  0  0  0  0  0  0  0  0  0
    4.7139    3.3224    0.0000 F   0  0  0  0  0  0  0  0  0  0  0  0
    5.0159    2.1954    0.0000 F   0  0  0  0  0  0  0  0  0  0  0  0
    3.5869    3.0204    0.0000 F   0  0  0  0  0  0  0  0  0  0  0  0
    4.3014    1.1790    0.0000 N   0  0  0  0  0  0  0  0  0  0  0  0
  2  1  1  1  0  0  0
  2  3  1  0  0  0  0
  3  4  1  0  0  0  0
  4  5  1  0  0  0  0
  2  5  1  0  0  0  0
  5  6  1  0  0  0  0
  6  7  4  0  0  0  0
  7  8  4  0  0  0  0
  8  9  1  0  0  0  0
  9 10  1  0  0  0  0
 11 10  1  6  0  0  0
 11 12  1  0  0  0  0
 12 13  1  1  0  0  0
 13 14  1  0  0  0  0
 14 15  2  0  0  0  0
 14 16  1  0  0  0  0
 12 17  1  0  0  0  0
 11 17  1  0  0  0  0
 17 18  1  6  0  0  0
  9 18  1  0  0  0  0
  8 19  4  0  0  0  0
 19 20  4  0  0  0  0
 20 21  1  0  0  0  0
 21 22  1  0  0  0  0
 21 23  1  0  0  0  0
 21 24  1  0  0  0  0
 20 25  4  0  0  0  0
  6 25  4  0  0  0  0
M  END
>  <CdId>
481

>  <Mol Weight>
356.349

>  <Formula>
C16H19F3N4O2

>  <Molecule ChEMBL ID>
CHEMBL4549658

>  <Molecule Max Phase>
None

>  <Molecular Weight>
356.35

>  <#RO5 Violations>
0

>  <AlogP>
2.25

>  <Compound Key>
8; PF-06835919

>  <Standard Type>
IC50

>  <Standard Relation>
'>'

>  <Standard Value>
100000.0

>  <Standard Units>
nM

$$$$

  Mrv2114 03112311372D          

 30 33  0  0  1  0            999 V2000
    2.7845    0.6979    0.0000 C   0  0  0  0  0  0  0  0  0  0  0  0
    2.0701    1.1104    0.0000 C   0  0  1  0  0  0  0  0  0  0  0  0
    1.3556    0.6979    0.0000 C   0  0  0  0  0  0  0  0  0  0  0  0
    0.6411    1.1104    0.0000 C   0  0  0  0  0  0  0  0  0  0  0  0
    0.6411    1.9354    0.0000 C   0  0  0  0  0  0  0  0  0  0  0  0
   -0.1435    2.1904    0.0000 N   0  0  0  0  0  0  0  0  0  0  0  0
   -0.6284    1.5229    0.0000 N   0  0  0  0  0  0  0  0  0  0  0  0
   -0.1435    0.8555    0.0000 N   0  0  0  0  0  0  0  0  0  0  0  0
   -0.3984    0.0709    0.0000 C   0  0  0  0  0  0  0  0  0  0  0  0
    0.1536   -0.5422    0.0000 N   0  0  0  0  0  0  0  0  0  0  0  0
   -0.1014   -1.3268    0.0000 C   0  0  0  0  0  0  0  0  0  0  0  0
   -0.9083   -1.4984    0.0000 C   0  0  0  0  0  0  0  0  0  0  0  0
   -1.1633   -2.2830    0.0000 F   0  0  0  0  0  0  0  0  0  0  0  0
   -1.4604   -0.8853    0.0000 C   0  0  0  0  0  0  0  0  0  0  0  0
   -1.2054   -0.1006    0.0000 N   0  0  0  0  0  0  0  0  0  0  0  0
    1.3556    2.3479    0.0000 C   0  0  0  0  0  0  0  0  0  0  0  0
    2.0701    1.9354    0.0000 N   0  0  0  0  0  0  0  0  0  0  0  0
    2.7845    2.3479    0.0000 C   0  0  0  0  0  0  0  0  0  0  0  0
    3.4990    1.9354    0.0000 O   0  0  0  0  0  0  0  0  0  0  0  0
    2.7845    3.1729    0.0000 C   0  0  0  0  0  0  0  0  0  0  0  0
    2.0701    3.5854    0.0000 C   0  0  0  0  0  0  0  0  0  0  0  0
    2.0701    4.4104    0.0000 C   0  0  0  0  0  0  0  0  0  0  0  0
    2.7845    4.8229    0.0000 C   0  0  0  0  0  0  0  0  0  0  0  0
    3.4990    4.4104    0.0000 C   0  0  0  0  0  0  0  0  0  0  0  0
    4.2135    4.8229    0.0000 C   0  0  0  0  0  0  0  0  0  0  0  0
    4.9279    5.2354    0.0000 F   0  0  0  0  0  0  0  0  0  0  0  0
    4.6260    4.1085    0.0000 F   0  0  0  0  0  0  0  0  0  0  0  0
    3.8010    5.5374    0.0000 F   0  0  0  0  0  0  0  0  0  0  0  0
    3.4990    3.5854    0.0000 C   0  0  0  0  0  0  0  0  0  0  0  0
    4.2135    3.1729    0.0000 F   0  0  0  0  0  0  0  0  0  0  0  0
  2  1  1  1  0  0  0
  2  3  1  0  0  0  0
  3  4  1  0  0  0  0
  4  5  4  0  0  0  0
  5  6  4  0  0  0  0
  6  7  4  0  0  0  0
  7  8  4  0  0  0  0
  4  8  4  0  0  0  0
  8  9  1  0  0  0  0
  9 10  4  0  0  0  0
 10 11  4  0  0  0  0
 11 12  4  0  0  0  0
 12 13  1  0  0  0  0
 12 14  4  0  0  0  0
 14 15  4  0  0  0  0
  9 15  4  0  0  0  0
  5 16  1  0  0  0  0
 16 17  1  0  0  0  0
  2 17  1  0  0  0  0
 17 18  1  0  0  0  0
 18 19  2  0  0  0  0
 18 20  1  0  0  0  0
 20 21  4  0  0  0  0
 21 22  4  0  0  0  0
 22 23  4  0  0  0  0
 23 24  4  0  0  0  0
 24 25  1  0  0  0  0
 25 26  1  0  0  0  0
 25 27  1  0  0  0  0
 25 28  1  0  0  0  0
 24 29  4  0  0  0  0
 20 29  4  0  0  0  0
 29 30  1  0  0  0  0
M  END
>  <CdId>
482

>  <Mol Weight>
424.335

>  <Formula>
C18H13F5N6O

>  <Molecule ChEMBL ID>
CHEMBL3919664

>  <Molecule Max Phase>
None

>  <Molecular Weight>
424.33

>  <#RO5 Violations>
0

>  <AlogP>
2.94

>  <Compound Key>
29

>  <Standard Type>
IC50

>  <Standard Relation>
'>'

>  <Standard Value>
10000.0

>  <Standard Units>
nM

$$$$

  Mrv2114 03112311372D          

 43 48  0  0  1  0            999 V2000
    2.4529    3.2175    0.0000 C   0  0  0  0  0  0  0  0  0  0  0  0
    2.8429    2.4905    0.0000 C   0  0  0  0  0  0  0  0  0  0  0  0
    2.4083    1.7892    0.0000 C   0  0  2  0  0  0  0  0  0  0  0  0
    2.7983    1.0622    0.0000 C   0  0  0  0  0  0  0  0  0  0  0  0
    3.5995    0.8656    0.0000 C   0  0  0  0  0  0  0  0  0  0  0  0
    4.2295    1.3982    0.0000 C   0  0  0  0  0  0  0  0  0  0  0  0
    4.8596    1.9308    0.0000 N   0  0  0  0  0  0  0  0  0  0  0  0
    3.6601    0.0428    0.0000 N   0  0  0  0  0  0  0  0  0  0  0  0
    2.8963   -0.2691    0.0000 C   0  0  0  0  0  0  0  0  0  0  0  0
    2.3637    0.3610    0.0000 N   0  0  0  0  0  0  0  0  0  0  0  0
    1.5391    0.3867    0.0000 C   0  0  0  0  0  0  0  0  0  0  0  0
    1.1045   -0.3145    0.0000 C   0  0  0  0  0  0  0  0  0  0  0  0
    0.2799   -0.2887    0.0000 N   0  0  0  0  0  0  0  0  0  0  0  0
   -0.1101    0.4383    0.0000 C   0  0  0  0  0  0  0  0  0  0  0  0
   -0.9347    0.4640    0.0000 N   0  0  0  0  0  0  0  0  0  0  0  0
   -1.3247    1.1910    0.0000 C   0  0  0  0  0  0  0  0  0  0  0  0
   -0.8901    1.8923    0.0000 C   0  0  0  0  0  0  0  0  0  0  0  0
   -1.2801    2.6193    0.0000 C   0  0  0  0  0  0  0  0  0  0  0  0
   -0.8455    3.3205    0.0000 F   0  0  0  0  0  0  0  0  0  0  0  0
   -2.1047    2.6450    0.0000 C   0  0  0  0  0  0  0  0  0  0  0  0
   -2.4947    3.3720    0.0000 C   0  0  0  0  0  0  0  0  0  0  0  0
   -2.0601    4.0733    0.0000 O   0  0  0  0  0  0  0  0  0  0  0  0
   -3.3193    3.3978    0.0000 N   0  0  0  0  0  0  0  0  0  0  0  0
   -3.7093    4.1248    0.0000 C   0  0  0  0  0  0  0  0  0  0  0  0
   -4.5339    4.1506    0.0000 C   0  0  0  0  0  0  0  0  0  0  0  0
   -4.9238    4.8776    0.0000 C   0  0  0  0  0  0  0  0  0  0  0  0
   -4.4892    5.5788    0.0000 N   0  0  0  0  0  0  0  0  0  0  0  0
   -4.8792    6.3058    0.0000 C   0  0  0  0  0  0  0  0  0  0  0  0
   -3.6646    5.5531    0.0000 C   0  0  0  0  0  0  0  0  0  0  0  0
   -3.2746    4.8260    0.0000 C   0  0  0  0  0  0  0  0  0  0  0  0
   -2.5393    1.9438    0.0000 C   0  0  0  0  0  0  0  0  0  0  0  0
   -2.1493    1.2168    0.0000 C   0  0  0  0  0  0  0  0  0  0  0  0
   -2.5839    0.5156    0.0000 O   0  0  0  0  0  0  0  0  0  0  0  0
   -2.1939   -0.2115    0.0000 C   0  0  0  0  0  0  0  0  0  0  0  0
    0.3245    1.1395    0.0000 N   0  0  0  0  0  0  0  0  0  0  0  0
    1.1491    1.1137    0.0000 C   0  0  0  0  0  0  0  0  0  0  0  0
    1.5837    1.8150    0.0000 N   0  0  0  0  0  0  0  0  0  0  0  0
    1.1937    2.5420    0.0000 C   0  0  0  0  0  0  0  0  0  0  0  0
    0.3691    2.5677    0.0000 C   0  0  0  0  0  0  0  0  0  0  0  0
   -0.0209    3.2948    0.0000 C   0  0  0  0  0  0  0  0  0  0  0  0
    0.4137    3.9960    0.0000 C   0  0  0  0  0  0  0  0  0  0  0  0
    1.2383    3.9702    0.0000 C   0  0  0  0  0  0  0  0  0  0  0  0
    1.6283    3.2432    0.0000 C   0  0  0  0  0  0  0  0  0  0  0  0
  1  2  1  0  0  0  0
  3  2  1  6  0  0  0
  3  4  1  0  0  0  0
  4  5  4  0  0  0  0
  5  6  1  0  0  0  0
  6  7  3  0  0  0  0
  5  8  4  0  0  0  0
  8  9  4  0  0  0  0
  9 10  4  0  0  0  0
  4 10  4  0  0  0  0
 10 11  1  0  0  0  0
 11 12  4  0  0  0  0
 12 13  4  0  0  0  0
 13 14  4  0  0  0  0
 14 15  1  0  0  0  0
 15 16  1  0  0  0  0
 16 17  4  0  0  0  0
 17 18  4  0  0  0  0
 18 19  1  0  0  0  0
 18 20  4  0  0  0  0
 20 21  1  0  0  0  0
 21 22  2  0  0  0  0
 21 23  1  0  0  0  0
 23 24  1  0  0  0  0
 24 25  1  0  0  0  0
 25 26  1  0  0  0  0
 26 27  1  0  0  0  0
 27 28  1  0  0  0  0
 27 29  1  0  0  0  0
 29 30  1  0  0  0  0
 24 30  1  0  0  0  0
 20 31  4  0  0  0  0
 31 32  4  0  0  0  0
 16 32  4  0  0  0  0
 32 33  1  0  0  0  0
 33 34  1  0  0  0  0
 14 35  4  0  0  0  0
 35 36  4  0  0  0  0
 11 36  4  0  0  0  0
 36 37  1  0  0  0  0
  3 37  1  0  0  0  0
 37 38  1  0  0  0  0
 38 39  1  0  0  0  0
 39 40  1  0  0  0  0
 40 41  1  0  0  0  0
 41 42  1  0  0  0  0
 42 43  1  0  0  0  0
 38 43  1  0  0  0  0
M  END
>  <CdId>
483

>  <Mol Weight>
587.704

>  <Formula>
C31H38FN9O2

>  <Molecule ChEMBL ID>
CHEMBL4078098

>  <Molecule Max Phase>
None

>  <Molecular Weight>
587.7

>  <#RO5 Violations>
1

>  <AlogP>
4.85

>  <Compound Key>
29

>  <Standard Type>
IC50

>  <Standard Relation>
'<'

>  <Standard Value>
10000.0

>  <Standard Units>
nM

$$$$

  Mrv2114 03112311372D          

 40 46  0  0  0  0            999 V2000
    6.4970   -1.8338    0.0000 O   0  0  0  0  0  0  0  0  0  0  0  0
    5.7825   -1.4213    0.0000 C   0  0  0  0  0  0  0  0  0  0  0  0
    5.7825   -0.5963    0.0000 O   0  0  0  0  0  0  0  0  0  0  0  0
    5.0680   -1.8338    0.0000 C   0  0  0  0  0  0  0  0  0  0  0  0
    5.0680   -2.6588    0.0000 C   0  0  0  0  0  0  0  0  0  0  0  0
    4.3536   -3.0713    0.0000 C   0  0  0  0  0  0  0  0  0  0  0  0
    4.3536   -3.8963    0.0000 F   0  0  0  0  0  0  0  0  0  0  0  0
    3.6391   -2.6588    0.0000 C   0  0  0  0  0  0  0  0  0  0  0  0
    2.8545   -2.9138    0.0000 N   0  0  0  0  0  0  0  0  0  0  0  0
    2.3695   -2.2463    0.0000 C   0  0  0  0  0  0  0  0  0  0  0  0
    1.5445   -2.2463    0.0000 N   0  0  0  0  0  0  0  0  0  0  0  0
    1.1320   -2.9608    0.0000 C   0  0  0  0  0  0  0  0  0  0  0  0
    0.3070   -2.9608    0.0000 C   0  0  0  0  0  0  0  0  0  0  0  0
   -0.1055   -2.2463    0.0000 C   0  0  0  0  0  0  0  0  0  0  0  0
   -0.6888   -2.8297    0.0000 C   0  0  0  0  0  0  0  0  0  0  0  0
   -1.2722   -2.2463    0.0000 C   0  0  0  0  0  0  0  0  0  0  0  0
   -2.0972   -2.2463    0.0000 C   0  0  0  0  0  0  0  0  0  0  0  0
   -2.5821   -2.9138    0.0000 C   0  0  0  0  0  0  0  0  0  0  0  0
   -2.3272   -3.6984    0.0000 C   0  0  0  0  0  0  0  0  0  0  0  0
   -1.5202   -3.8699    0.0000 C   0  0  0  0  0  0  0  0  0  0  0  0
   -1.2653   -4.6545    0.0000 C   0  0  0  0  0  0  0  0  0  0  0  0
   -1.8173   -5.2676    0.0000 C   0  0  0  0  0  0  0  0  0  0  0  0
   -2.6243   -5.0961    0.0000 C   0  0  0  0  0  0  0  0  0  0  0  0
   -2.8792   -4.3115    0.0000 C   0  0  0  0  0  0  0  0  0  0  0  0
   -3.6862   -4.1400    0.0000 C   0  0  0  0  0  0  0  0  0  0  0  0
   -4.4931   -3.9684    0.0000 F   0  0  0  0  0  0  0  0  0  0  0  0
   -3.5146   -3.3330    0.0000 F   0  0  0  0  0  0  0  0  0  0  0  0
   -3.8577   -4.9469    0.0000 F   0  0  0  0  0  0  0  0  0  0  0  0
   -3.3667   -2.6588    0.0000 N   0  0  0  0  0  0  0  0  0  0  0  0
   -3.3667   -1.8338    0.0000 O   0  0  0  0  0  0  0  0  0  0  0  0
   -2.5821   -1.5789    0.0000 C   0  0  0  0  0  0  0  0  0  0  0  0
   -2.3272   -0.7943    0.0000 C   0  0  0  0  0  0  0  0  0  0  0  0
   -2.4987    0.0127    0.0000 C   0  0  0  0  0  0  0  0  0  0  0  0
   -1.7141   -0.2422    0.0000 C   0  0  0  0  0  0  0  0  0  0  0  0
   -0.6888   -1.6630    0.0000 C   0  0  0  0  0  0  0  0  0  0  0  0
    0.3070   -1.5319    0.0000 C   0  0  0  0  0  0  0  0  0  0  0  0
    1.1320   -1.5319    0.0000 C   0  0  0  0  0  0  0  0  0  0  0  0
    2.8545   -1.5789    0.0000 S   0  0  0  0  0  0  0  0  0  0  0  0
    3.6391   -1.8338    0.0000 C   0  0  0  0  0  0  0  0  0  0  0  0
    4.3536   -1.4213    0.0000 C   0  0  0  0  0  0  0  0  0  0  0  0
  1  2  2  0  0  0  0
  2  3  1  0  0  0  0
  2  4  1  0  0  0  0
  4  5  4  0  0  0  0
  5  6  4  0  0  0  0
  6  7  1  0  0  0  0
  6  8  4  0  0  0  0
  8  9  4  0  0  0  0
  9 10  4  0  0  0  0
 10 11  1  0  0  0  0
 11 12  1  0  0  0  0
 12 13  1  0  0  0  0
 13 14  1  0  0  0  0
 14 15  1  0  0  0  0
 15 16  2  0  0  0  0
 16 17  1  0  0  0  0
 17 18  4  0  0  0  0
 18 19  1  0  0  0  0
 19 20  4  0  0  0  0
 20 21  4  0  0  0  0
 21 22  4  0  0  0  0
 22 23  4  0  0  0  0
 23 24  4  0  0  0  0
 19 24  4  0  0  0  0
 24 25  1  0  0  0  0
 25 26  1  0  0  0  0
 25 27  1  0  0  0  0
 25 28  1  0  0  0  0
 18 29  4  0  0  0  0
 29 30  4  0  0  0  0
 30 31  4  0  0  0  0
 17 31  4  0  0  0  0
 31 32  1  0  0  0  0
 32 33  1  0  0  0  0
 33 34  1  0  0  0  0
 32 34  1  0  0  0  0
 16 35  1  0  0  0  0
 14 35  1  0  0  0  0
 14 36  1  0  0  0  0
 36 37  1  0  0  0  0
 11 37  1  0  0  0  0
 10 38  4  0  0  0  0
 38 39  4  0  0  0  0
  8 39  4  0  0  0  0
 39 40  4  0  0  0  0
  4 40  4  0  0  0  0
M  END
>  <CdId>
484

>  <Mol Weight>
569.57

>  <Formula>
C29H23F4N3O3S

>  <Molecule ChEMBL ID>
CHEMBL4874257

>  <Molecule Max Phase>
None

>  <Molecular Weight>
569.58

>  <#RO5 Violations>
2

>  <AlogP>
7.76

>  <Compound Key>
10

>  <Standard Type>
IC50

$$$$

  Mrv2114 03112311372D          

 33 37  0  0  0  0            999 V2000
    0.0000   -4.9500    0.0000 C   0  0  0  0  0  0  0  0  0  0  0  0
    0.7145   -5.3625    0.0000 C   0  0  0  0  0  0  0  0  0  0  0  0
    1.4289   -4.9500    0.0000 C   0  0  0  0  0  0  0  0  0  0  0  0
    2.1434   -5.3625    0.0000 C   0  0  0  0  0  0  0  0  0  0  0  0
    2.8971   -5.0269    0.0000 N   0  0  0  0  0  0  0  0  0  0  0  0
    3.4491   -5.6400    0.0000 C   0  0  0  0  0  0  0  0  0  0  0  0
    4.2741   -5.6400    0.0000 N   0  0  0  0  0  0  0  0  0  0  0  0
    4.6866   -6.3545    0.0000 C   0  0  0  0  0  0  0  0  0  0  0  0
    4.2741   -7.0690    0.0000 C   0  0  0  0  0  0  0  0  0  0  0  0
    4.6866   -7.7834    0.0000 Cl  0  0  0  0  0  0  0  0  0  0  0  0
    3.4491   -7.0690    0.0000 C   0  0  0  0  0  0  0  0  0  0  0  0
    3.0366   -6.3545    0.0000 C   0  0  0  0  0  0  0  0  0  0  0  0
    2.2296   -6.1830    0.0000 N   0  0  0  0  0  0  0  0  0  0  0  0
    1.4289   -4.1250    0.0000 C   0  0  1  0  0  0  0  0  0  0  0  0
    0.7145   -3.7125    0.0000 C   0  0  0  0  0  0  0  0  0  0  0  0
    0.7145   -2.8875    0.0000 C   0  0  0  0  0  0  0  0  0  0  0  0
    1.4289   -2.4750    0.0000 C   0  0  1  0  0  0  0  0  0  0  0  0
    1.4289   -1.6500    0.0000 C   0  0  0  0  0  0  0  0  0  0  0  0
    0.7145   -1.2375    0.0000 C   0  0  0  0  0  0  0  0  0  0  0  0
    0.7145   -0.4125    0.0000 C   0  0  0  0  0  0  0  0  0  0  0  0
    1.4289    0.0000    0.0000 N   0  0  0  0  0  0  0  0  0  0  0  0
    2.1434   -0.4125    0.0000 C   0  0  0  0  0  0  0  0  0  0  0  0
    2.8579    0.0000    0.0000 C   0  0  0  0  0  0  0  0  0  0  0  0
    3.5724   -0.4125    0.0000 C   0  0  0  0  0  0  0  0  0  0  0  0
    3.5724   -1.2375    0.0000 C   0  0  0  0  0  0  0  0  0  0  0  0
    4.2868   -1.6500    0.0000 C   0  0  0  0  0  0  0  0  0  0  0  0
    5.0013   -2.0625    0.0000 F   0  0  0  0  0  0  0  0  0  0  0  0
    3.8743   -2.3645    0.0000 F   0  0  0  0  0  0  0  0  0  0  0  0
    4.6993   -0.9355    0.0000 F   0  0  0  0  0  0  0  0  0  0  0  0
    2.8579   -1.6500    0.0000 C   0  0  0  0  0  0  0  0  0  0  0  0
    2.1434   -1.2375    0.0000 C   0  0  0  0  0  0  0  0  0  0  0  0
    2.1434   -2.8875    0.0000 C   0  0  0  0  0  0  0  0  0  0  0  0
    2.1434   -3.7125    0.0000 C   0  0  0  0  0  0  0  0  0  0  0  0
  1  2  1  0  0  0  0
  2  3  1  0  0  0  0
  3  4  1  0  0  0  0
  4  5  4  0  0  0  0
  5  6  4  0  0  0  0
  6  7  4  0  0  0  0
  7  8  4  0  0  0  0
  8  9  4  0  0  0  0
  9 10  1  0  0  0  0
  9 11  4  0  0  0  0
 11 12  4  0  0  0  0
  6 12  4  0  0  0  0
 12 13  4  0  0  0  0
  4 13  4  0  0  0  0
 14  3  1  1  0  0  0
 14 15  1  0  0  0  0
 15 16  1  0  0  0  0
 17 16  1  0  0  0  0
 17 18  1  1  0  0  0
 18 19  4  0  0  0  0
 19 20  4  0  0  0  0
 20 21  4  0  0  0  0
 21 22  4  0  0  0  0
 22 23  4  0  0  0  0
 23 24  4  0  0  0  0
 24 25  4  0  0  0  0
 25 26  1  0  0  0  0
 26 27  1  0  0  0  0
 26 28  1  0  0  0  0
 26 29  1  0  0  0  0
 25 30  4  0  0  0  0
 30 31  4  0  0  0  0
 22 31  4  0  0  0  0
 18 31  4  0  0  0  0
 17 32  1  0  0  0  0
 32 33  1  0  0  0  0
 14 33  1  0  0  0  0
M  STY  1   1 DAT
M  SAL   1  1  13
M  SDT   1 MRV_IMPLICIT_H                                        
M  SDD   1     0.0000    0.0000    DR    ALL  0       0  
M  SED   1 IMPL_H1
M  END
>  <CdId>
485

>  <Mol Weight>
472.94

>  <Formula>
C25H24ClF3N4

>  <Molecule ChEMBL ID>
CHEMBL4756822

>  <Molecule Max Phase>
None

>  <Molecular Weight>
472.94

>  <#RO5 Violations>
1

>  <AlogP>
7.65

>  <Compound Key>
36

>  <Standard Type>
IC50

>  <Standard Relation>
'='

>  <Standard Value>
1470.0

>  <Standard Units>
nM

$$$$

  Mrv2114 03112311372D          

 22 23  0  0  0  0            999 V2000
   -0.7145   -1.2375    0.0000 C   0  0  0  0  0  0  0  0  0  0  0  0
    0.0000   -1.6500    0.0000 C   0  0  0  0  0  0  0  0  0  0  0  0
    0.7145   -1.2375    0.0000 N   0  0  0  0  0  0  0  0  0  0  0  0
    1.4289   -1.6500    0.0000 C   0  0  0  0  0  0  0  0  0  0  0  0
    2.1434   -1.2375    0.0000 O   0  0  0  0  0  0  0  0  0  0  0  0
    1.4289   -2.4750    0.0000 C   0  0  0  0  0  0  0  0  0  0  0  0
    2.1434   -2.8875    0.0000 C   0  0  0  0  0  0  0  0  0  0  0  0
    2.1434   -3.7125    0.0000 C   0  0  0  0  0  0  0  0  0  0  0  0
    2.8579   -4.1250    0.0000 C   0  0  0  0  0  0  0  0  0  0  0  0
    2.8579   -4.9500    0.0000 C   0  0  0  0  0  0  0  0  0  0  0  0
    3.5724   -3.7125    0.0000 C   0  0  0  0  0  0  0  0  0  0  0  0
    1.4289   -4.1250    0.0000 C   0  0  0  0  0  0  0  0  0  0  0  0
    1.4289   -4.9500    0.0000 O   0  0  0  0  0  0  0  0  0  0  0  0
    0.7145   -3.7125    0.0000 C   0  0  0  0  0  0  0  0  0  0  0  0
    0.7145   -2.8875    0.0000 C   0  0  0  0  0  0  0  0  0  0  0  0
    0.0000   -2.4750    0.0000 O   0  0  0  0  0  0  0  0  0  0  0  0
    0.7145   -0.4125    0.0000 C   0  0  0  0  0  0  0  0  0  0  0  0
    0.0000    0.0000    0.0000 C   0  0  0  0  0  0  0  0  0  0  0  0
    0.0000    0.8250    0.0000 C   0  0  0  0  0  0  0  0  0  0  0  0
    0.7145    1.2375    0.0000 C   0  0  0  0  0  0  0  0  0  0  0  0
    1.4289    0.8250    0.0000 N   0  0  0  0  0  0  0  0  0  0  0  0
    1.4289    0.0000    0.0000 C   0  0  0  0  0  0  0  0  0  0  0  0
  1  2  1  0  0  0  0
  2  3  1  0  0  0  0
  3  4  1  0  0  0  0
  4  5  2  0  0  0  0
  4  6  1  0  0  0  0
  6  7  4  0  0  0  0
  7  8  4  0  0  0  0
  8  9  1  0  0  0  0
  9 10  1  0  0  0  0
  9 11  1  0  0  0  0
  8 12  4  0  0  0  0
 12 13  1  0  0  0  0
 12 14  4  0  0  0  0
 14 15  4  0  0  0  0
  6 15  4  0  0  0  0
 15 16  1  0  0  0  0
  3 17  1  0  0  0  0
 17 18  4  0  0  0  0
 18 19  4  0  0  0  0
 19 20  4  0  0  0  0
 20 21  4  0  0  0  0
 21 22  4  0  0  0  0
 17 22  4  0  0  0  0
M  END
>  <CdId>
486

>  <Mol Weight>
300.358

>  <Formula>
C17H20N2O3

>  <Molecule ChEMBL ID>
CHEMBL4871799

>  <Molecule Max Phase>
None

>  <Molecular Weight>
300.36

>  <#RO5 Violations>
0

>  <AlogP>
3.28

>  <Compound Key>
6b

>  <Standard Type>
IC50

>  <Standard Relation>
'>'

>  <Standard Value>
50000.0

>  <Standard Units>
nM

$$$$

  Mrv2114 03112311372D          

 32 35  0  0  0  0            999 V2000
    2.1434   -3.7125    0.0000 C   0  0  0  0  0  0  0  0  0  0  0  0
    2.8579   -4.1250    0.0000 O   0  0  0  0  0  0  0  0  0  0  0  0
    2.8579   -4.9500    0.0000 C   0  0  0  0  0  0  0  0  0  0  0  0
    3.5724   -5.3625    0.0000 C   0  0  0  0  0  0  0  0  0  0  0  0
    3.5724   -6.1875    0.0000 C   0  0  0  0  0  0  0  0  0  0  0  0
    4.2868   -6.6000    0.0000 C   0  0  0  0  0  0  0  0  0  0  0  0
    5.0013   -6.1875    0.0000 C   0  0  0  0  0  0  0  0  0  0  0  0
    5.7158   -6.6000    0.0000 N   0  0  0  0  0  0  0  0  0  0  0  0
    5.7158   -7.4250    0.0000 C   0  0  0  0  0  0  0  0  0  0  0  0
    5.0013   -7.8375    0.0000 C   0  0  0  0  0  0  0  0  0  0  0  0
    5.0013   -8.6625    0.0000 C   0  0  0  0  0  0  0  0  0  0  0  0
    5.7158   -9.0750    0.0000 C   0  0  0  0  0  0  0  0  0  0  0  0
    5.7158   -9.9000    0.0000 C   0  0  0  0  0  0  0  0  0  0  0  0
    5.0013  -10.3125    0.0000 C   0  0  0  0  0  0  0  0  0  0  0  0
    5.0013  -11.1375    0.0000 N   0  0  0  0  0  0  0  0  0  0  0  0
    5.7158  -11.5500    0.0000 C   0  0  0  0  0  0  0  0  0  0  0  0
    5.7158  -12.3750    0.0000 C   0  0  0  0  0  0  0  0  0  0  0  0
    5.0013  -12.7875    0.0000 N   0  0  0  0  0  0  0  0  0  0  0  0
    5.0013  -13.6125    0.0000 C   0  0  0  0  0  0  0  0  0  0  0  0
    4.2868  -12.3750    0.0000 C   0  0  0  0  0  0  0  0  0  0  0  0
    4.2868  -11.5500    0.0000 C   0  0  0  0  0  0  0  0  0  0  0  0
    4.2868   -9.9000    0.0000 C   0  0  0  0  0  0  0  0  0  0  0  0
    4.2868   -9.0750    0.0000 C   0  0  0  0  0  0  0  0  0  0  0  0
    4.2868   -7.4250    0.0000 C   0  0  0  0  0  0  0  0  0  0  0  0
    3.5724   -7.8375    0.0000 C   0  0  0  0  0  0  0  0  0  0  0  0
    2.8579   -6.6000    0.0000 C   0  0  0  0  0  0  0  0  0  0  0  0
    2.1434   -6.1875    0.0000 C   0  0  0  0  0  0  0  0  0  0  0  0
    1.4289   -6.6000    0.0000 F   0  0  0  0  0  0  0  0  0  0  0  0
    2.1434   -5.3625    0.0000 C   0  0  0  0  0  0  0  0  0  0  0  0
    1.4289   -4.9500    0.0000 C   0  0  0  0  0  0  0  0  0  0  0  0
    0.7145   -5.3625    0.0000 N   0  0  0  0  0  0  0  0  0  0  0  0
    1.4289   -4.1250    0.0000 O   0  0  0  0  0  0  0  0  0  0  0  0
  1  2  1  0  0  0  0
  2  3  1  0  0  0  0
  3  4  4  0  0  0  0
  4  5  4  0  0  0  0
  5  6  1  0  0  0  0
  6  7  4  0  0  0  0
  7  8  4  0  0  0  0
  8  9  4  0  0  0  0
  9 10  4  0  0  0  0
 10 11  1  0  0  0  0
 11 12  4  0  0  0  0
 12 13  4  0  0  0  0
 13 14  4  0  0  0  0
 14 15  1  0  0  0  0
 15 16  1  0  0  0  0
 16 17  1  0  0  0  0
 17 18  1  0  0  0  0
 18 19  1  0  0  0  0
 18 20  1  0  0  0  0
 20 21  1  0  0  0  0
 15 21  1  0  0  0  0
 14 22  4  0  0  0  0
 22 23  4  0  0  0  0
 11 23  4  0  0  0  0
 10 24  4  0  0  0  0
  6 24  4  0  0  0  0
 24 25  1  0  0  0  0
  5 26  4  0  0  0  0
 26 27  4  0  0  0  0
 27 28  1  0  0  0  0
 27 29  4  0  0  0  0
  3 29  4  0  0  0  0
 29 30  1  0  0  0  0
 30 31  1  0  0  0  0
 30 32  2  0  0  0  0
M  END
>  <CdId>
487

>  <Mol Weight>
434.515

>  <Formula>
C25H27FN4O2

>  <Molecule ChEMBL ID>
CHEMBL4575655

>  <Molecule Max Phase>
None

>  <Molecular Weight>
434.52

>  <#RO5 Violations>
0

>  <AlogP>
3.72

>  <Compound Key>
26a

>  <Standard Type>
IC50

>  <Standard Relation>
'>'

>  <Standard Value>
30000.0

>  <Standard Units>
nM

$$$$

  Mrv2114 03112311372D          

 22 24  0  0  0  0            999 V2000
    1.4289   -2.4750    0.0000 O   0  0  0  0  0  0  0  0  0  0  0  0
    1.4289   -1.6500    0.0000 C   0  0  0  0  0  0  0  0  0  0  0  0
    0.7145   -1.2375    0.0000 C   0  0  0  0  0  0  0  0  0  0  0  0
    0.0000   -1.6500    0.0000 O   0  0  0  0  0  0  0  0  0  0  0  0
    0.7145   -0.4125    0.0000 C   0  0  0  0  0  0  0  0  0  0  0  0
    0.0000    0.0000    0.0000 C   0  0  0  0  0  0  0  0  0  0  0  0
   -0.7145   -0.4125    0.0000 C   0  0  0  0  0  0  0  0  0  0  0  0
   -1.4289    0.0000    0.0000 C   0  0  0  0  0  0  0  0  0  0  0  0
   -1.4289    0.8250    0.0000 C   0  0  0  0  0  0  0  0  0  0  0  0
   -2.1434    1.2375    0.0000 O   0  0  0  0  0  0  0  0  0  0  0  0
   -0.7145    1.2375    0.0000 C   0  0  0  0  0  0  0  0  0  0  0  0
   -0.7145    2.0625    0.0000 O   0  0  0  0  0  0  0  0  0  0  0  0
    0.0000    0.8250    0.0000 C   0  0  0  0  0  0  0  0  0  0  0  0
    1.4289    0.0000    0.0000 O   0  0  0  0  0  0  0  0  0  0  0  0
    2.1434   -0.4125    0.0000 C   0  0  0  0  0  0  0  0  0  0  0  0
    2.8579    0.0000    0.0000 C   0  0  0  0  0  0  0  0  0  0  0  0
    3.5724   -0.4125    0.0000 C   0  0  0  0  0  0  0  0  0  0  0  0
    4.2868   -0.0000    0.0000 O   0  0  0  0  0  0  0  0  0  0  0  0
    3.5724   -1.2375    0.0000 C   0  0  0  0  0  0  0  0  0  0  0  0
    2.8579   -1.6500    0.0000 C   0  0  0  0  0  0  0  0  0  0  0  0
    2.8579   -2.4750    0.0000 O   0  0  0  0  0  0  0  0  0  0  0  0
    2.1434   -1.2375    0.0000 C   0  0  0  0  0  0  0  0  0  0  0  0
  1  2  2  0  0  0  0
  2  3  4  0  0  0  0
  3  4  1  0  0  0  0
  3  5  4  0  0  0  0
  5  6  1  0  0  0  0
  6  7  4  0  0  0  0
  7  8  4  0  0  0  0
  8  9  4  0  0  0  0
  9 10  1  0  0  0  0
  9 11  4  0  0  0  0
 11 12  1  0  0  0  0
 11 13  4  0  0  0  0
  6 13  4  0  0  0  0
  5 14  4  0  0  0  0
 14 15  4  0  0  0  0
 15 16  4  0  0  0  0
 16 17  4  0  0  0  0
 17 18  1  0  0  0  0
 17 19  4  0  0  0  0
 19 20  4  0  0  0  0
 20 21  1  0  0  0  0
 20 22  4  0  0  0  0
  2 22  4  0  0  0  0
 15 22  4  0  0  0  0
M  END
>  <CdId>
488

>  <Mol Weight>
302.238

>  <Formula>
C15H10O7

>  <Molecule ChEMBL ID>
CHEMBL50

>  <Molecule Name>
QUERCETIN

>  <Molecule Max Phase>
3

>  <Molecular Weight>
302.24

>  <#RO5 Violations>
0

>  <AlogP>
1.99

>  <Compound Key>
Quercetin

>  <Standard Type>
IC50

>  <Standard Relation>
'='

>  <Standard Value>
1200.0

>  <Standard Units>
nM

$$$$

  Mrv2114 03112311372D          

 41 44  0  0  0  0            999 V2000
    4.2868    1.6500    0.0000 C   0  0  0  0  0  0  0  0  0  0  0  0
    4.2868    0.8250    0.0000 C   0  0  0  0  0  0  0  0  0  0  0  0
    3.4618    0.8250    0.0000 C   0  0  0  0  0  0  0  0  0  0  0  0
    5.1118    0.8250    0.0000 C   0  0  0  0  0  0  0  0  0  0  0  0
    4.2868    0.0000    0.0000 C   0  0  0  0  0  0  0  0  0  0  0  0
    5.0013   -0.4125    0.0000 C   0  0  0  0  0  0  0  0  0  0  0  0
    5.0013   -1.2375    0.0000 C   0  0  0  0  0  0  0  0  0  0  0  0
    4.2868   -1.6500    0.0000 C   0  0  0  0  0  0  0  0  0  0  0  0
    3.5724   -1.2375    0.0000 C   0  0  0  0  0  0  0  0  0  0  0  0
    3.5724   -0.4125    0.0000 C   0  0  0  0  0  0  0  0  0  0  0  0
    2.8579    0.0000    0.0000 O   0  0  0  0  0  0  0  0  0  0  0  0
    2.1434   -0.4125    0.0000 C   0  0  0  0  0  0  0  0  0  0  0  0
    2.1434   -1.2375    0.0000 C   0  0  0  0  0  0  0  0  0  0  0  0
    1.4289   -1.6500    0.0000 C   0  0  0  0  0  0  0  0  0  0  0  0
    0.7145   -1.2375    0.0000 C   0  0  0  0  0  0  0  0  0  0  0  0
    0.0000   -1.6500    0.0000 C   0  0  0  0  0  0  0  0  0  0  0  0
    0.0000   -2.4750    0.0000 C   0  0  0  0  0  0  0  0  0  0  0  0
   -0.7145   -2.8875    0.0000 C   0  0  0  0  0  0  0  0  0  0  0  0
   -1.4289   -2.4750    0.0000 C   0  0  0  0  0  0  0  0  0  0  0  0
   -1.4289   -1.6500    0.0000 C   0  0  0  0  0  0  0  0  0  0  0  0
   -2.1434   -1.2375    0.0000 C   0  0  0  0  0  0  0  0  0  0  0  0
   -2.8579   -1.6500    0.0000 O   0  0  0  0  0  0  0  0  0  0  0  0
   -2.1434   -0.4125    0.0000 O   0  0  0  0  0  0  0  0  0  0  0  0
   -0.7145   -1.2375    0.0000 C   0  0  0  0  0  0  0  0  0  0  0  0
    0.7145   -0.4125    0.0000 C   0  0  0  0  0  0  0  0  0  0  0  0
    1.4289   -0.0000    0.0000 C   0  0  0  0  0  0  0  0  0  0  0  0
    1.4289    0.8250    0.0000 N   0  0  0  0  0  0  0  0  0  0  0  0
    2.1434    1.2375    0.0000 C   0  0  0  0  0  0  0  0  0  0  0  0
    2.8579    0.8250    0.0000 O   0  0  0  0  0  0  0  0  0  0  0  0
    2.1434    2.0625    0.0000 N   0  0  0  0  0  0  0  0  0  0  0  0
    2.8579    2.4750    0.0000 C   0  0  0  0  0  0  0  0  0  0  0  0
    2.8579    3.3000    0.0000 C   0  0  0  0  0  0  0  0  0  0  0  0
    3.5724    3.7125    0.0000 C   0  0  0  0  0  0  0  0  0  0  0  0
    4.2868    3.3000    0.0000 C   0  0  0  0  0  0  0  0  0  0  0  0
    5.0013    3.7125    0.0000 O   0  0  0  0  0  0  0  0  0  0  0  0
    5.0013    4.5375    0.0000 C   0  0  0  0  0  0  0  0  0  0  0  0
    5.0013    5.3625    0.0000 F   0  0  0  0  0  0  0  0  0  0  0  0
    5.8263    4.5375    0.0000 F   0  0  0  0  0  0  0  0  0  0  0  0
    4.1763    4.5375    0.0000 F   0  0  0  0  0  0  0  0  0  0  0  0
    4.2868    2.4750    0.0000 C   0  0  0  0  0  0  0  0  0  0  0  0
    3.5724    2.0625    0.0000 C   0  0  0  0  0  0  0  0  0  0  0  0
  1  2  1  0  0  0  0
  2  3  1  0  0  0  0
  2  4  1  0  0  0  0
  2  5  1  0  0  0  0
  5  6  4  0  0  0  0
  6  7  4  0  0  0  0
  7  8  4  0  0  0  0
  8  9  4  0  0  0  0
  9 10  4  0  0  0  0
  5 10  4  0  0  0  0
 10 11  1  0  0  0  0
 11 12  1  0  0  0  0
 12 13  4  0  0  0  0
 13 14  4  0  0  0  0
 14 15  4  0  0  0  0
 15 16  1  0  0  0  0
 16 17  4  0  0  0  0
 17 18  4  0  0  0  0
 18 19  4  0  0  0  0
 19 20  4  0  0  0  0
 20 21  1  0  0  0  0
 21 22  2  0  0  0  0
 21 23  1  0  0  0  0
 20 24  4  0  0  0  0
 16 24  4  0  0  0  0
 15 25  4  0  0  0  0
 25 26  4  0  0  0  0
 12 26  4  0  0  0  0
 26 27  1  0  0  0  0
 27 28  1  0  0  0  0
 28 29  2  0  0  0  0
 28 30  1  0  0  0  0
 30 31  1  0  0  0  0
 31 32  4  0  0  0  0
 32 33  4  0  0  0  0
 33 34  4  0  0  0  0
 34 35  1  0  0  0  0
 35 36  1  0  0  0  0
 36 37  1  0  0  0  0
 36 38  1  0  0  0  0
 36 39  1  0  0  0  0
 34 40  4  0  0  0  0
 40 41  4  0  0  0  0
 31 41  4  0  0  0  0
M  END
>  <CdId>
489

>  <Mol Weight>
564.561

>  <Formula>
C31H27F3N2O5

>  <Molecule ChEMBL ID>
CHEMBL4097275

>  <Molecule Max Phase>
None

>  <Molecular Weight>
564.56

>  <#RO5 Violations>
2

>  <AlogP>
8.68

>  <Compound Key>
1

>  <Standard Type>
IC50

>  <Standard Relation>
'>'

>  <Standard Value>
5000.0

>  <Standard Units>
nM

$$$$

  Mrv2114 03112311372D          

 20 21  0  0  0  0            999 V2000
    2.8579    0.0000    0.0000 C   0  0  0  0  0  0  0  0  0  0  0  0
    3.5724    0.4125    0.0000 C   0  0  0  0  0  0  0  0  0  0  0  0
    4.2868    0.0000    0.0000 C   0  0  0  0  0  0  0  0  0  0  0  0
    5.0013    0.4125    0.0000 C   0  0  0  0  0  0  0  0  0  0  0  0
    5.7158    0.0000    0.0000 N   0  0  0  0  0  0  0  0  0  0  0  0
    6.4302    0.4125    0.0000 C   0  0  0  0  0  0  0  0  0  0  0  0
    6.4302    1.2375    0.0000 N   0  0  0  0  0  0  0  0  0  0  0  0
    7.1447    1.6500    0.0000 C   0  0  0  0  0  0  0  0  0  0  0  0
    7.1447    2.4750    0.0000 N   0  0  0  0  0  0  0  0  0  0  0  0
    7.8592    1.2375    0.0000 N   0  0  0  0  0  0  0  0  0  0  0  0
    7.8592    0.4125    0.0000 C   0  0  0  0  0  0  0  0  0  0  0  0
    8.5737    0.0000    0.0000 C   0  0  0  0  0  0  0  0  0  0  0  0
    8.5737   -0.8250    0.0000 C   0  0  0  0  0  0  0  0  0  0  0  0
    7.8592   -1.2375    0.0000 C   0  0  0  0  0  0  0  0  0  0  0  0
    7.1447   -0.8250    0.0000 C   0  0  0  0  0  0  0  0  0  0  0  0
    6.4302   -1.2375    0.0000 C   0  0  0  0  0  0  0  0  0  0  0  0
    6.4302   -2.0625    0.0000 O   0  0  0  0  0  0  0  0  0  0  0  0
    5.7158   -0.8250    0.0000 N   0  0  0  0  0  0  0  0  0  0  0  0
    5.0013   -1.2375    0.0000 C   0  0  0  0  0  0  0  0  0  0  0  0
    7.1447    0.0000    0.0000 C   0  0  0  0  0  0  0  0  0  0  0  0
  1  2  1  0  0  0  0
  2  3  1  0  0  0  0
  3  4  1  0  0  0  0
  4  5  1  0  0  0  0
  5  6  1  0  0  0  0
  6  7  4  0  0  0  0
  7  8  4  0  0  0  0
  8  9  1  0  0  0  0
  8 10  4  0  0  0  0
 10 11  4  0  0  0  0
 11 12  4  0  0  0  0
 12 13  4  0  0  0  0
 13 14  4  0  0  0  0
 14 15  4  0  0  0  0
 15 16  1  0  0  0  0
 16 17  2  0  0  0  0
 16 18  1  0  0  0  0
 18 19  1  0  0  0  0
 15 20  4  0  0  0  0
  6 20  4  0  0  0  0
 11 20  4  0  0  0  0
M  END
>  <CdId>
490

>  <Mol Weight>
273.34

>  <Formula>
C14H19N5O

>  <Molecule ChEMBL ID>
CHEMBL4210732

>  <Molecule Max Phase>
None

>  <Molecular Weight>
273.34

>  <#RO5 Violations>
0

>  <AlogP>
1.78

>  <Compound Key>
42

>  <Standard Type>
IC50

>  <Standard Relation>
'>'

>  <Standard Value>
10000.0

>  <Standard Units>
nM

$$$$

  Mrv2114 03112311372D          

 19 20  0  0  0  0            999 V2000
    5.1170   -4.5761    0.0000 C   0  0  0  0  0  0  0  0  0  0  0  0
    5.8315   -4.1636    0.0000 C   0  0  0  0  0  0  0  0  0  0  0  0
    6.5459   -4.5761    0.0000 C   0  0  0  0  0  0  0  0  0  0  0  0
    7.2604   -4.1636    0.0000 C   0  0  0  0  0  0  0  0  0  0  0  0
    7.9749   -4.5761    0.0000 C   0  0  0  0  0  0  0  0  0  0  0  0
    8.6894   -4.1636    0.0000 C   0  0  0  0  0  0  0  0  0  0  0  0
    9.4038   -4.5761    0.0000 C   0  0  0  0  0  0  0  0  0  0  0  0
   10.1183   -4.1636    0.0000 S   0  0  0  0  0  0  0  0  0  0  0  0
   10.8328   -4.5761    0.0000 C   0  0  0  0  0  0  0  0  0  0  0  0
   11.5865   -4.2405    0.0000 N   0  0  0  0  0  0  0  0  0  0  0  0
   12.1385   -4.8536    0.0000 C   0  0  0  0  0  0  0  0  0  0  0  0
   12.9635   -4.8536    0.0000 C   0  0  0  0  0  0  0  0  0  0  0  0
   13.3760   -5.5681    0.0000 C   0  0  0  0  0  0  0  0  0  0  0  0
   14.2010   -5.5681    0.0000 O   0  0  0  0  0  0  0  0  0  0  0  0
   14.6135   -4.8536    0.0000 C   0  0  0  0  0  0  0  0  0  0  0  0
   12.9635   -6.2826    0.0000 C   0  0  0  0  0  0  0  0  0  0  0  0
   12.1385   -6.2826    0.0000 C   0  0  0  0  0  0  0  0  0  0  0  0
   11.7260   -5.5681    0.0000 C   0  0  0  0  0  0  0  0  0  0  0  0
   10.9190   -5.3966    0.0000 N   0  0  0  0  0  0  0  0  0  0  0  0
  1  2  1  0  0  0  0
  2  3  1  0  0  0  0
  3  4  1  0  0  0  0
  4  5  1  0  0  0  0
  5  6  1  0  0  0  0
  6  7  1  0  0  0  0
  7  8  1  0  0  0  0
  8  9  1  0  0  0  0
  9 10  4  0  0  0  0
 10 11  4  0  0  0  0
 11 12  4  0  0  0  0
 12 13  4  0  0  0  0
 13 14  1  0  0  0  0
 14 15  1  0  0  0  0
 13 16  4  0  0  0  0
 16 17  4  0  0  0  0
 17 18  4  0  0  0  0
 11 18  4  0  0  0  0
 18 19  4  0  0  0  0
  9 19  4  0  0  0  0
M  STY  1   1 DAT
M  SAL   1  1  19
M  SDT   1 MRV_IMPLICIT_H                                        
M  SDD   1     0.0000    0.0000    DR    ALL  0       0  
M  SED   1 IMPL_H1
M  END
>  <CdId>
491

>  <Mol Weight>
278.41

>  <Formula>
C15H22N2OS

>  <Molecule ChEMBL ID>
CHEMBL2018908

>  <Molecule Max Phase>
None

>  <Molecular Weight>
278.42

>  <#RO5 Violations>
0

>  <AlogP>
4.63

>  <Compound Key>
6

>  <Standard Type>
IC50

>  <Standard Relation>
'>'

>  <Standard Value>
50000.0

>  <Standard Units>
nM

$$$$

  Mrv2114 03112311372D          

 28 30  0  0  0  0            999 V2000
    1.4289   -1.6500    0.0000 C   0  0  0  0  0  0  0  0  0  0  0  0
    1.4289   -2.4750    0.0000 C   0  0  0  0  0  0  0  0  0  0  0  0
    2.1434   -2.8875    0.0000 C   0  0  0  0  0  0  0  0  0  0  0  0
    2.1434   -3.7125    0.0000 C   0  0  0  0  0  0  0  0  0  0  0  0
    1.4289   -4.1250    0.0000 C   0  0  0  0  0  0  0  0  0  0  0  0
    1.4289   -4.9500    0.0000 N   0  0  0  0  0  0  0  0  0  0  0  0
    2.1434   -5.3625    0.0000 C   0  0  0  0  0  0  0  0  0  0  0  0
    2.1434   -6.1875    0.0000 C   0  0  0  0  0  0  0  0  0  0  0  0
    1.4289   -6.6000    0.0000 C   0  0  0  0  0  0  0  0  0  0  0  0
    1.4289   -7.4250    0.0000 O   0  0  0  0  0  0  0  0  0  0  0  0
    0.7145   -6.1875    0.0000 C   0  0  0  0  0  0  0  0  0  0  0  0
    0.7145   -5.3625    0.0000 C   0  0  0  0  0  0  0  0  0  0  0  0
    0.7145   -3.7125    0.0000 N   0  0  0  0  0  0  0  0  0  0  0  0
    0.7145   -2.8875    0.0000 C   0  0  0  0  0  0  0  0  0  0  0  0
    0.0000   -2.4750    0.0000 C   0  0  0  0  0  0  0  0  0  0  0  0
    0.0000   -1.6500    0.0000 O   0  0  0  0  0  0  0  0  0  0  0  0
   -0.7145   -2.8875    0.0000 N   0  0  0  0  0  0  0  0  0  0  0  0
   -1.4289   -2.4750    0.0000 C   0  0  0  0  0  0  0  0  0  0  0  0
   -2.1434   -2.8875    0.0000 C   0  0  0  0  0  0  0  0  0  0  0  0
   -2.1434   -3.7125    0.0000 C   0  0  0  0  0  0  0  0  0  0  0  0
   -2.8579   -2.4750    0.0000 C   0  0  0  0  0  0  0  0  0  0  0  0
   -2.8579   -1.6500    0.0000 C   0  0  0  0  0  0  0  0  0  0  0  0
   -3.5724   -1.2375    0.0000 C   0  0  0  0  0  0  0  0  0  0  0  0
   -4.2868   -1.6500    0.0000 O   0  0  0  0  0  0  0  0  0  0  0  0
   -3.5724   -0.4125    0.0000 O   0  0  0  0  0  0  0  0  0  0  0  0
   -2.1434   -1.2375    0.0000 C   0  0  0  0  0  0  0  0  0  0  0  0
   -1.4289   -1.6500    0.0000 C   0  0  0  0  0  0  0  0  0  0  0  0
   -0.7145   -1.2375    0.0000 C   0  0  0  0  0  0  0  0  0  0  0  0
  1  2  1  0  0  0  0
  2  3  4  0  0  0  0
  3  4  4  0  0  0  0
  4  5  4  0  0  0  0
  5  6  1  0  0  0  0
  6  7  1  0  0  0  0
  7  8  1  0  0  0  0
  8  9  1  0  0  0  0
  9 10  1  0  0  0  0
  9 11  1  0  0  0  0
 11 12  1  0  0  0  0
  6 12  1  0  0  0  0
  5 13  4  0  0  0  0
 13 14  4  0  0  0  0
  2 14  4  0  0  0  0
 14 15  1  0  0  0  0
 15 16  2  0  0  0  0
 15 17  1  0  0  0  0
 17 18  1  0  0  0  0
 18 19  4  0  0  0  0
 19 20  1  0  0  0  0
 19 21  4  0  0  0  0
 21 22  4  0  0  0  0
 22 23  1  0  0  0  0
 23 24  2  0  0  0  0
 23 25  1  0  0  0  0
 22 26  4  0  0  0  0
 26 27  4  0  0  0  0
 18 27  4  0  0  0  0
 27 28  1  0  0  0  0
M  END
>  <CdId>
492

>  <Mol Weight>
383.448

>  <Formula>
C21H25N3O4

>  <Molecule ChEMBL ID>
CHEMBL3686863

>  <Molecule Max Phase>
None

>  <Molecular Weight>
383.45

>  <#RO5 Violations>
0

>  <AlogP>
2.92

>  <Compound Key>
4f

>  <Standard Type>
IC50

>  <Standard Relation>
'>'

>  <Standard Value>
10000.0

>  <Standard Units>
nM

$$$$

  Mrv2114 03112311372D          

 22 24  0  0  0  0            999 V2000
    4.2868    1.6500    0.0000 C   0  0  0  0  0  0  0  0  0  0  0  0
    3.5724    1.2375    0.0000 C   0  0  0  0  0  0  0  0  0  0  0  0
    3.5724    0.4125    0.0000 C   0  0  0  0  0  0  0  0  0  0  0  0
    2.8579   -0.0000    0.0000 C   0  0  0  0  0  0  0  0  0  0  0  0
    2.1434    0.4125    0.0000 C   0  0  0  0  0  0  0  0  0  0  0  0
    1.4289   -0.0000    0.0000 S   0  0  0  0  0  0  0  0  0  0  0  0
    1.0164    0.7145    0.0000 O   0  0  0  0  0  0  0  0  0  0  0  0
    1.8414   -0.7145    0.0000 O   0  0  0  0  0  0  0  0  0  0  0  0
    0.7145   -0.4125    0.0000 N   0  0  0  0  0  0  0  0  0  0  0  0
    0.7145   -1.2375    0.0000 C   0  0  0  0  0  0  0  0  0  0  0  0
    1.3819   -1.7224    0.0000 C   0  0  0  0  0  0  0  0  0  0  0  0
    1.1270   -2.5070    0.0000 C   0  0  0  0  0  0  0  0  0  0  0  0
    0.3020   -2.5070    0.0000 N   0  0  0  0  0  0  0  0  0  0  0  0
    0.0470   -1.7224    0.0000 N   0  0  0  0  0  0  0  0  0  0  0  0
   -0.7376   -1.4675    0.0000 C   0  0  0  0  0  0  0  0  0  0  0  0
   -1.3507   -2.0195    0.0000 C   0  0  0  0  0  0  0  0  0  0  0  0
   -2.1353   -1.7646    0.0000 C   0  0  0  0  0  0  0  0  0  0  0  0
   -2.3068   -0.9576    0.0000 C   0  0  0  0  0  0  0  0  0  0  0  0
   -1.6937   -0.4056    0.0000 C   0  0  0  0  0  0  0  0  0  0  0  0
   -0.9091   -0.6605    0.0000 C   0  0  0  0  0  0  0  0  0  0  0  0
    2.1434    1.2375    0.0000 C   0  0  0  0  0  0  0  0  0  0  0  0
    2.8579    1.6500    0.0000 C   0  0  0  0  0  0  0  0  0  0  0  0
  1  2  1  0  0  0  0
  2  3  4  0  0  0  0
  3  4  4  0  0  0  0
  4  5  4  0  0  0  0
  5  6  1  0  0  0  0
  6  7  2  0  0  0  0
  6  8  2  0  0  0  0
  6  9  1  0  0  0  0
  9 10  1  0  0  0  0
 10 11  4  0  0  0  0
 11 12  4  0  0  0  0
 12 13  4  0  0  0  0
 13 14  4  0  0  0  0
 10 14  4  0  0  0  0
 14 15  1  0  0  0  0
 15 16  4  0  0  0  0
 16 17  4  0  0  0  0
 17 18  4  0  0  0  0
 18 19  4  0  0  0  0
 19 20  4  0  0  0  0
 15 20  4  0  0  0  0
  5 21  4  0  0  0  0
 21 22  4  0  0  0  0
  2 22  4  0  0  0  0
M  END
>  <CdId>
493

>  <Mol Weight>
313.38

>  <Formula>
C16H15N3O2S

>  <Molecule ChEMBL ID>
CHEMBL432386

>  <Molecule Max Phase>
None

>  <Molecular Weight>
313.38

>  <#RO5 Violations>
0

>  <AlogP>
2.98

>  <Compound Key>
1

>  <Standard Type>
IC50

>  <Standard Relation>
'='

>  <Standard Value>
220000.0

>  <Standard Units>
nM

$$$$

  Mrv2114 03112311372D          

 24 26  0  0  0  0            999 V2000
   -1.4289   -2.4750    0.0000 C   0  0  0  0  0  0  0  0  0  0  0  0
   -0.7145   -2.0625    0.0000 O   0  0  0  0  0  0  0  0  0  0  0  0
    0.0000   -2.4750    0.0000 C   0  0  0  0  0  0  0  0  0  0  0  0
    0.7145   -2.0625    0.0000 C   0  0  0  0  0  0  0  0  0  0  0  0
    1.4289   -2.4750    0.0000 C   0  0  0  0  0  0  0  0  0  0  0  0
    2.1434   -2.0625    0.0000 C   0  0  0  0  0  0  0  0  0  0  0  0
    2.1434   -1.2375    0.0000 C   0  0  0  0  0  0  0  0  0  0  0  0
    2.8579   -0.8250    0.0000 C   0  0  0  0  0  0  0  0  0  0  0  0
    3.5724   -1.2375    0.0000 C   0  0  0  0  0  0  0  0  0  0  0  0
    4.3570   -0.9826    0.0000 O   0  0  0  0  0  0  0  0  0  0  0  0
    4.8419   -1.6500    0.0000 C   0  0  0  0  0  0  0  0  0  0  0  0
    5.6669   -1.6500    0.0000 C   0  0  0  0  0  0  0  0  0  0  0  0
    6.0794   -0.9355    0.0000 C   0  0  0  0  0  0  0  0  0  0  0  0
    6.9044   -0.9355    0.0000 C   0  0  0  0  0  0  0  0  0  0  0  0
    7.3169   -1.6500    0.0000 C   0  0  0  0  0  0  0  0  0  0  0  0
    8.1419   -1.6500    0.0000 O   0  0  0  0  0  0  0  0  0  0  0  0
    8.5544   -0.9355    0.0000 C   0  0  0  0  0  0  0  0  0  0  0  0
    6.9044   -2.3645    0.0000 C   0  0  0  0  0  0  0  0  0  0  0  0
    7.3169   -3.0789    0.0000 O   0  0  0  0  0  0  0  0  0  0  0  0
    6.9044   -3.7934    0.0000 C   0  0  0  0  0  0  0  0  0  0  0  0
    6.0794   -2.3645    0.0000 C   0  0  0  0  0  0  0  0  0  0  0  0
    4.3570   -2.3174    0.0000 C   0  0  0  0  0  0  0  0  0  0  0  0
    3.5724   -2.0625    0.0000 C   0  0  0  0  0  0  0  0  0  0  0  0
    2.8579   -2.4750    0.0000 C   0  0  0  0  0  0  0  0  0  0  0  0
  1  2  1  0  0  0  0
  2  3  1  0  0  0  0
  3  4  1  0  0  0  0
  4  5  1  0  0  0  0
  5  6  1  0  0  0  0
  6  7  4  0  0  0  0
  7  8  4  0  0  0  0
  8  9  4  0  0  0  0
  9 10  4  0  0  0  0
 10 11  4  0  0  0  0
 11 12  1  0  0  0  0
 12 13  4  0  0  0  0
 13 14  4  0  0  0  0
 14 15  4  0  0  0  0
 15 16  1  0  0  0  0
 16 17  1  0  0  0  0
 15 18  4  0  0  0  0
 18 19  1  0  0  0  0
 19 20  1  0  0  0  0
 18 21  4  0  0  0  0
 12 21  4  0  0  0  0
 11 22  4  0  0  0  0
 22 23  4  0  0  0  0
  9 23  4  0  0  0  0
 23 24  4  0  0  0  0
  6 24  4  0  0  0  0
M  END
>  <CdId>
494

>  <Mol Weight>
326.392

>  <Formula>
C20H22O4

>  <Molecule ChEMBL ID>
CHEMBL4066961

>  <Molecule Max Phase>
None

>  <Molecular Weight>
326.39

>  <#RO5 Violations>
0

>  <AlogP>
4.7

>  <Compound Key>
8; MDR-1339

>  <Standard Type>
IC50

>  <Standard Relation>
'='

>  <Standard Value>
31400.0

>  <Standard Units>
nM

$$$$

  Mrv2114 03112311372D          

 39 43  0  0  1  0            999 V2000
   -0.8335    4.3845    0.0000 O   0  0  0  0  0  0  0  0  0  0  0  0
   -0.1190    3.9720    0.0000 C   0  0  0  0  0  0  0  0  0  0  0  0
    0.5955    4.3845    0.0000 O   0  0  0  0  0  0  0  0  0  0  0  0
   -0.1190    3.1470    0.0000 C   0  0  0  0  0  0  0  0  0  0  0  0
    0.5955    2.7345    0.0000 C   0  0  1  0  0  0  0  0  0  0  0  0
    1.3099    3.1470    0.0000 C   0  0  0  0  0  0  0  0  0  0  0  0
    2.0244    2.7345    0.0000 C   0  0  0  0  0  0  0  0  0  0  0  0
    2.0244    1.9095    0.0000 C   0  0  0  0  0  0  0  0  0  0  0  0
    1.3099    1.4970    0.0000 N   0  0  0  0  0  0  0  0  0  0  0  0
    1.3099    0.6720    0.0000 C   0  0  0  0  0  0  0  0  0  0  0  0
    2.0244    0.2595    0.0000 C   0  0  1  0  0  0  0  0  0  0  0  0
    2.7389    0.6720    0.0000 O   0  0  0  0  0  0  0  0  0  0  0  0
    2.0244   -0.5655    0.0000 C   0  0  0  0  0  0  0  0  0  0  0  0
    2.7389   -0.9780    0.0000 C   0  0  0  0  0  0  0  0  0  0  0  0
    2.7389   -1.8030    0.0000 C   0  0  0  0  0  0  0  0  0  0  0  0
    2.0244   -2.2155    0.0000 C   0  0  0  0  0  0  0  0  0  0  0  0
    2.0244   -3.0405    0.0000 C   0  0  0  0  0  0  0  0  0  0  0  0
    2.6918   -3.5254    0.0000 N   0  0  0  0  0  0  0  0  0  0  0  0
    2.4369   -4.3100    0.0000 O   0  0  0  0  0  0  0  0  0  0  0  0
    1.6119   -4.3100    0.0000 C   0  0  0  0  0  0  0  0  0  0  0  0
    1.1270   -4.9774    0.0000 C   0  0  0  0  0  0  0  0  0  0  0  0
    1.3819   -5.7621    0.0000 O   0  0  0  0  0  0  0  0  0  0  0  0
    0.7145   -6.2470    0.0000 N   0  0  0  0  0  0  0  0  0  0  0  0
    0.0470   -5.7621    0.0000 C   0  0  0  0  0  0  0  0  0  0  0  0
   -0.7376   -6.0170    0.0000 C   0  0  0  0  0  0  0  0  0  0  0  0
   -0.9091   -6.8240    0.0000 C   0  0  0  0  0  0  0  0  0  0  0  0
   -1.6937   -7.0789    0.0000 C   0  0  0  0  0  0  0  0  0  0  0  0
   -2.3068   -6.5269    0.0000 C   0  0  0  0  0  0  0  0  0  0  0  0
   -2.1353   -5.7199    0.0000 C   0  0  0  0  0  0  0  0  0  0  0  0
   -1.3507   -5.4650    0.0000 C   0  0  0  0  0  0  0  0  0  0  0  0
    0.3020   -4.9774    0.0000 C   0  0  0  0  0  0  0  0  0  0  0  0
   -0.1830   -4.3100    0.0000 C   0  0  0  0  0  0  0  0  0  0  0  0
   -0.6679   -3.6426    0.0000 F   0  0  0  0  0  0  0  0  0  0  0  0
    0.4845   -3.8251    0.0000 F   0  0  0  0  0  0  0  0  0  0  0  0
   -0.8504   -4.7949    0.0000 F   0  0  0  0  0  0  0  0  0  0  0  0
    1.3570   -3.5254    0.0000 N   0  0  0  0  0  0  0  0  0  0  0  0
    1.3099   -1.8030    0.0000 C   0  0  0  0  0  0  0  0  0  0  0  0
    1.3099   -0.9780    0.0000 C   0  0  0  0  0  0  0  0  0  0  0  0
    0.5955    1.9095    0.0000 C   0  0  0  0  0  0  0  0  0  0  0  0
  1  2  2  0  0  0  0
  2  3  1  0  0  0  0
  2  4  1  0  0  0  0
  5  4  1  1  0  0  0
  5  6  1  0  0  0  0
  6  7  1  0  0  0  0
  7  8  1  0  0  0  0
  8  9  1  0  0  0  0
  9 10  1  0  0  0  0
 11 10  1  0  0  0  0
 11 12  1  1  0  0  0
 11 13  1  0  0  0  0
 13 14  4  0  0  0  0
 14 15  4  0  0  0  0
 15 16  4  0  0  0  0
 16 17  1  0  0  0  0
 17 18  4  0  0  0  0
 18 19  4  0  0  0  0
 19 20  4  0  0  0  0
 20 21  1  0  0  0  0
 21 22  4  0  0  0  0
 22 23  4  0  0  0  0
 23 24  4  0  0  0  0
 24 25  1  0  0  0  0
 25 26  4  0  0  0  0
 26 27  4  0  0  0  0
 27 28  4  0  0  0  0
 28 29  4  0  0  0  0
 29 30  4  0  0  0  0
 25 30  4  0  0  0  0
 24 31  4  0  0  0  0
 21 31  4  0  0  0  0
 31 32  1  0  0  0  0
 32 33  1  0  0  0  0
 32 34  1  0  0  0  0
 32 35  1  0  0  0  0
 20 36  4  0  0  0  0
 17 36  4  0  0  0  0
 16 37  4  0  0  0  0
 37 38  4  0  0  0  0
 13 38  4  0  0  0  0
  9 39  1  0  0  0  0
  5 39  1  0  0  0  0
M  END
>  <CdId>
495

>  <Mol Weight>
542.515

>  <Formula>
C27H25F3N4O5

>  <Molecule ChEMBL ID>
CHEMBL4458575

>  <Molecule Max Phase>
None

>  <Molecular Weight>
542.51

>  <#RO5 Violations>
2

>  <AlogP>
5.3

>  <Compound Key>
19a

>  <Standard Type>
IC50

>  <Standard Relation>
'='

>  <Standard Value>
22000.0

>  <Standard Units>
nM

$$$$

  Mrv2114 03112311372D          

 35 38  0  0  1  0            999 V2000
   -6.0177    0.6507    0.0000 C   0  0  0  0  0  0  0  0  0  0  0  0
   -5.3033    1.0632    0.0000 O   0  0  0  0  0  0  0  0  0  0  0  0
   -4.5888    0.6507    0.0000 C   0  0  0  0  0  0  0  0  0  0  0  0
   -3.8743    1.0632    0.0000 C   0  0  0  0  0  0  0  0  0  0  0  0
   -3.1599    0.6507    0.0000 C   0  0  0  0  0  0  0  0  0  0  0  0
   -2.4454    1.0632    0.0000 C   0  0  0  0  0  0  0  0  0  0  0  0
   -2.4454    1.8882    0.0000 N   0  0  0  0  0  0  0  0  0  0  0  0
   -1.7309    2.3007    0.0000 C   0  0  0  0  0  0  0  0  0  0  0  0
   -1.0164    1.8882    0.0000 C   0  0  0  0  0  0  0  0  0  0  0  0
   -0.3020    2.3007    0.0000 C   0  0  0  0  0  0  0  0  0  0  0  0
    0.4125    1.8882    0.0000 O   0  0  0  0  0  0  0  0  0  0  0  0
    1.1270    2.3007    0.0000 C   0  0  0  0  0  0  0  0  0  0  0  0
    1.1270    3.1257    0.0000 C   0  0  0  0  0  0  0  0  0  0  0  0
    1.8414    3.5382    0.0000 C   0  0  0  0  0  0  0  0  0  0  0  0
    2.5559    3.1257    0.0000 C   0  0  0  0  0  0  0  0  0  0  0  0
    2.5559    2.3007    0.0000 C   0  0  0  0  0  0  0  0  0  0  0  0
    3.2704    1.8882    0.0000 C   0  0  1  0  0  0  0  0  0  0  0  0
    3.9849    2.3007    0.0000 C   0  0  0  0  0  0  0  0  0  0  0  0
    4.6993    1.8882    0.0000 C   0  0  0  0  0  0  0  0  0  0  0  0
    5.4138    2.3007    0.0000 O   0  0  0  0  0  0  0  0  0  0  0  0
    4.6993    1.0632    0.0000 O   0  0  0  0  0  0  0  0  0  0  0  0
    3.2704    1.0632    0.0000 C   0  0  0  0  0  0  0  0  0  0  0  0
    3.6829    0.3487    0.0000 C   0  0  0  0  0  0  0  0  0  0  0  0
    2.8579    0.3487    0.0000 C   0  0  0  0  0  0  0  0  0  0  0  0
    1.8414    1.8882    0.0000 C   0  0  0  0  0  0  0  0  0  0  0  0
   -1.0164    1.0632    0.0000 N   0  0  0  0  0  0  0  0  0  0  0  0
   -1.7309    0.6507    0.0000 C   0  0  0  0  0  0  0  0  0  0  0  0
   -1.7309   -0.1743    0.0000 C   0  0  0  0  0  0  0  0  0  0  0  0
   -1.0164   -0.5868    0.0000 C   0  0  0  0  0  0  0  0  0  0  0  0
   -0.3020   -0.1743    0.0000 C   0  0  0  0  0  0  0  0  0  0  0  0
   -1.0164   -1.4118    0.0000 C   0  0  0  0  0  0  0  0  0  0  0  0
   -3.1599   -0.1743    0.0000 C   0  0  0  0  0  0  0  0  0  0  0  0
   -2.4454   -0.5868    0.0000 F   0  0  0  0  0  0  0  0  0  0  0  0
   -3.8743   -0.5868    0.0000 C   0  0  0  0  0  0  0  0  0  0  0  0
   -4.5888   -0.1743    0.0000 N   0  0  0  0  0  0  0  0  0  0  0  0
  1  2  1  0  0  0  0
  2  3  1  0  0  0  0
  3  4  4  0  0  0  0
  4  5  4  0  0  0  0
  5  6  1  0  0  0  0
  6  7  4  0  0  0  0
  7  8  4  0  0  0  0
  8  9  4  0  0  0  0
  9 10  1  0  0  0  0
 10 11  1  0  0  0  0
 11 12  1  0  0  0  0
 12 13  4  0  0  0  0
 13 14  4  0  0  0  0
 14 15  4  0  0  0  0
 15 16  4  0  0  0  0
 17 16  1  0  0  0  0
 17 18  1  1  0  0  0
 18 19  1  0  0  0  0
 19 20  2  0  0  0  0
 19 21  1  0  0  0  0
 17 22  1  0  0  0  0
 22 23  1  0  0  0  0
 23 24  1  0  0  0  0
 22 24  1  0  0  0  0
 16 25  4  0  0  0  0
 12 25  4  0  0  0  0
  9 26  4  0  0  0  0
 26 27  4  0  0  0  0
  6 27  4  0  0  0  0
 27 28  1  0  0  0  0
 28 29  1  0  0  0  0
 29 30  1  0  0  0  0
 29 31  1  0  0  0  0
  5 32  4  0  0  0  0
 32 33  1  0  0  0  0
 32 34  4  0  0  0  0
 34 35  4  0  0  0  0
  3 35  4  0  0  0  0
M  END
>  <CdId>
496

>  <Mol Weight>
479.552

>  <Formula>
C27H30FN3O4

>  <Molecule ChEMBL ID>
CHEMBL4764485

>  <Molecule Max Phase>
None

>  <Molecular Weight>
479.55

>  <#RO5 Violations>
1

>  <AlogP>
5.43

>  <Compound Key>
12

>  <Standard Type>
IC50

>  <Standard Relation>
'='

>  <Standard Value>
9800.0

>  <Standard Units>
nM

$$$$

  Mrv2114 03112311372D          

 23 23  0  0  1  0            999 V2000
    3.5724   -7.8375    0.0000 C   0  0  0  0  0  0  0  0  0  0  0  0
    4.2868   -7.4250    0.0000 C   0  0  0  0  0  0  0  0  0  0  0  0
    5.0013   -7.8375    0.0000 C   0  0  0  0  0  0  0  0  0  0  0  0
    5.7158   -7.4250    0.0000 C   0  0  0  0  0  0  0  0  0  0  0  0
    6.4302   -7.8375    0.0000 C   0  0  0  0  0  0  0  0  0  0  0  0
    7.1447   -7.4250    0.0000 C   0  0  0  0  0  0  0  0  0  0  0  0
    7.8592   -7.8375    0.0000 C   0  0  0  0  0  0  0  0  0  0  0  0
    8.5737   -7.4250    0.0000 C   0  0  2  0  0  0  0  0  0  0  0  0
    8.5737   -6.6000    0.0000 O   0  0  0  0  0  0  0  0  0  0  0  0
    9.2881   -7.8375    0.0000 C   0  0  0  0  0  0  0  0  0  0  0  0
   10.0026   -7.4250    0.0000 C   0  0  0  0  0  0  0  0  0  0  0  0
   10.0026   -6.6000    0.0000 O   0  0  0  0  0  0  0  0  0  0  0  0
   10.7171   -7.8375    0.0000 C   0  0  0  0  0  0  0  0  0  0  0  0
   11.4315   -7.4250    0.0000 C   0  0  0  0  0  0  0  0  0  0  0  0
   12.1460   -7.8375    0.0000 C   0  0  0  0  0  0  0  0  0  0  0  0
   12.8605   -7.4250    0.0000 C   0  0  0  0  0  0  0  0  0  0  0  0
   13.5749   -7.8375    0.0000 C   0  0  0  0  0  0  0  0  0  0  0  0
   13.5749   -8.6625    0.0000 C   0  0  0  0  0  0  0  0  0  0  0  0
   14.2894   -9.0750    0.0000 O   0  0  0  0  0  0  0  0  0  0  0  0
   12.8605   -9.0750    0.0000 C   0  0  0  0  0  0  0  0  0  0  0  0
   12.8605   -9.9000    0.0000 O   0  0  0  0  0  0  0  0  0  0  0  0
   12.1460  -10.3125    0.0000 C   0  0  0  0  0  0  0  0  0  0  0  0
   12.1460   -8.6625    0.0000 C   0  0  0  0  0  0  0  0  0  0  0  0
  1  2  1  0  0  0  0
  2  3  1  0  0  0  0
  3  4  1  0  0  0  0
  4  5  1  0  0  0  0
  5  6  1  0  0  0  0
  6  7  1  0  0  0  0
  8  7  1  0  0  0  0
  8  9  1  6  0  0  0
  8 10  1  0  0  0  0
 10 11  1  0  0  0  0
 11 12  2  0  0  0  0
 11 13  1  0  0  0  0
 13 14  1  0  0  0  0
 14 15  1  0  0  0  0
 15 16  4  0  0  0  0
 16 17  4  0  0  0  0
 17 18  4  0  0  0  0
 18 19  1  0  0  0  0
 18 20  4  0  0  0  0
 20 21  1  0  0  0  0
 21 22  1  0  0  0  0
 20 23  4  0  0  0  0
 15 23  4  0  0  0  0
M  END
>  <CdId>
497

>  <Mol Weight>
322.445

>  <Formula>
C19H30O4

>  <Molecule ChEMBL ID>
CHEMBL1095671

>  <Molecule Max Phase>
None

>  <Molecular Weight>
322.45

>  <#RO5 Violations>
0

>  <AlogP>
4.01

>  <Compound Key>
8-Gingerol

>  <Standard Type>
IC50

>  <Standard Relation>
'='

>  <Standard Value>
2200.0

>  <Standard Units>
nM

$$$$

  Mrv2114 03112311372D          

 18 20  0  0  0  0            999 V2000
    4.0668    2.3479    0.0000 N   0  0  0  0  0  0  0  0  0  0  0  0
    3.3523    1.9354    0.0000 C   0  0  0  0  0  0  0  0  0  0  0  0
    3.3523    1.1104    0.0000 C   0  0  0  0  0  0  0  0  0  0  0  0
    2.6378    0.6979    0.0000 C   0  0  0  0  0  0  0  0  0  0  0  0
    1.9233    1.1104    0.0000 C   0  0  0  0  0  0  0  0  0  0  0  0
    1.1387    0.8555    0.0000 N   0  0  0  0  0  0  0  0  0  0  0  0
    0.6538    1.5229    0.0000 C   0  0  0  0  0  0  0  0  0  0  0  0
   -0.1712    1.5229    0.0000 S   0  0  0  0  0  0  0  0  0  0  0  0
   -0.5837    0.8085    0.0000 C   0  0  0  0  0  0  0  0  0  0  0  0
   -1.4087    0.8085    0.0000 C   0  0  0  0  0  0  0  0  0  0  0  0
   -1.8212    0.0940    0.0000 C   0  0  0  0  0  0  0  0  0  0  0  0
   -2.6462    0.0940    0.0000 C   0  0  0  0  0  0  0  0  0  0  0  0
   -3.0587    0.8085    0.0000 C   0  0  0  0  0  0  0  0  0  0  0  0
   -2.6462    1.5229    0.0000 C   0  0  0  0  0  0  0  0  0  0  0  0
   -1.8212    1.5229    0.0000 N   0  0  0  0  0  0  0  0  0  0  0  0
    1.1387    2.1904    0.0000 N   0  0  0  0  0  0  0  0  0  0  0  0
    1.9233    1.9354    0.0000 C   0  0  0  0  0  0  0  0  0  0  0  0
    2.6378    2.3479    0.0000 C   0  0  0  0  0  0  0  0  0  0  0  0
  1  2  1  0  0  0  0
  2  3  4  0  0  0  0
  3  4  4  0  0  0  0
  4  5  4  0  0  0  0
  5  6  4  0  0  0  0
  6  7  4  0  0  0  0
  7  8  1  0  0  0  0
  8  9  1  0  0  0  0
  9 10  1  0  0  0  0
 10 11  4  0  0  0  0
 11 12  4  0  0  0  0
 12 13  4  0  0  0  0
 13 14  4  0  0  0  0
 14 15  4  0  0  0  0
 10 15  4  0  0  0  0
  7 16  4  0  0  0  0
 16 17  4  0  0  0  0
  5 17  4  0  0  0  0
 17 18  4  0  0  0  0
  2 18  4  0  0  0  0
M  STY  1   1 DAT
M  SAL   1  1   6
M  SDT   1 MRV_IMPLICIT_H                                        
M  SDD   1     0.0000    0.0000    DR    ALL  0       0  
M  SED   1 IMPL_H1
M  END
>  <CdId>
498

>  <Mol Weight>
256.33

>  <Formula>
C13H12N4S

>  <Molecule ChEMBL ID>
CHEMBL2019026

>  <Molecule Max Phase>
None

>  <Molecular Weight>
256.33

>  <#RO5 Violations>
0

>  <AlogP>
2.83

>  <Compound Key>
32

>  <Standard Type>
IC50

>  <Standard Relation>
'='

>  <Standard Value>
990.0

>  <Standard Units>
nM

$$$$

  Mrv2114 03112311372D          

 22 24  0  0  0  0            999 V2000
    1.4289   -2.4750    0.0000 O   0  0  0  0  0  0  0  0  0  0  0  0
    1.4289   -1.6500    0.0000 C   0  0  0  0  0  0  0  0  0  0  0  0
    0.7145   -1.2375    0.0000 C   0  0  0  0  0  0  0  0  0  0  0  0
    0.0000   -1.6500    0.0000 O   0  0  0  0  0  0  0  0  0  0  0  0
    0.7145   -0.4125    0.0000 C   0  0  0  0  0  0  0  0  0  0  0  0
    0.0000    0.0000    0.0000 C   0  0  0  0  0  0  0  0  0  0  0  0
   -0.7145   -0.4125    0.0000 C   0  0  0  0  0  0  0  0  0  0  0  0
   -1.4289    0.0000    0.0000 C   0  0  0  0  0  0  0  0  0  0  0  0
   -1.4289    0.8250    0.0000 C   0  0  0  0  0  0  0  0  0  0  0  0
   -2.1434    1.2375    0.0000 O   0  0  0  0  0  0  0  0  0  0  0  0
   -0.7145    1.2375    0.0000 C   0  0  0  0  0  0  0  0  0  0  0  0
   -0.7145    2.0625    0.0000 O   0  0  0  0  0  0  0  0  0  0  0  0
    0.0000    0.8250    0.0000 C   0  0  0  0  0  0  0  0  0  0  0  0
    1.4289    0.0000    0.0000 O   0  0  0  0  0  0  0  0  0  0  0  0
    2.1434   -0.4125    0.0000 C   0  0  0  0  0  0  0  0  0  0  0  0
    2.8579    0.0000    0.0000 C   0  0  0  0  0  0  0  0  0  0  0  0
    3.5724   -0.4125    0.0000 C   0  0  0  0  0  0  0  0  0  0  0  0
    4.2868   -0.0000    0.0000 O   0  0  0  0  0  0  0  0  0  0  0  0
    3.5724   -1.2375    0.0000 C   0  0  0  0  0  0  0  0  0  0  0  0
    2.8579   -1.6500    0.0000 C   0  0  0  0  0  0  0  0  0  0  0  0
    2.8579   -2.4750    0.0000 O   0  0  0  0  0  0  0  0  0  0  0  0
    2.1434   -1.2375    0.0000 C   0  0  0  0  0  0  0  0  0  0  0  0
  1  2  2  0  0  0  0
  2  3  4  0  0  0  0
  3  4  1  0  0  0  0
  3  5  4  0  0  0  0
  5  6  1  0  0  0  0
  6  7  4  0  0  0  0
  7  8  4  0  0  0  0
  8  9  4  0  0  0  0
  9 10  1  0  0  0  0
  9 11  4  0  0  0  0
 11 12  1  0  0  0  0
 11 13  4  0  0  0  0
  6 13  4  0  0  0  0
  5 14  4  0  0  0  0
 14 15  4  0  0  0  0
 15 16  4  0  0  0  0
 16 17  4  0  0  0  0
 17 18  1  0  0  0  0
 17 19  4  0  0  0  0
 19 20  4  0  0  0  0
 20 21  1  0  0  0  0
 20 22  4  0  0  0  0
  2 22  4  0  0  0  0
 15 22  4  0  0  0  0
M  END
>  <CdId>
499

>  <Mol Weight>
302.238

>  <Formula>
C15H10O7

>  <Molecule ChEMBL ID>
CHEMBL50

>  <Molecule Name>
QUERCETIN

>  <Molecule Max Phase>
3

>  <Molecular Weight>
302.24

>  <#RO5 Violations>
0

>  <AlogP>
1.99

>  <Compound Key>
1

>  <Standard Type>
IC50

>  <Standard Relation>
'='

>  <Standard Value>
7000.0

>  <Standard Units>
nM

$$$$

  Mrv2114 03112311372D          

 23 25  0  0  0  0            999 V2000
    4.2868    1.6500    0.0000 C   0  0  0  0  0  0  0  0  0  0  0  0
    3.5724    1.2375    0.0000 C   0  0  0  0  0  0  0  0  0  0  0  0
    3.5724    0.4125    0.0000 C   0  0  0  0  0  0  0  0  0  0  0  0
    2.8579   -0.0000    0.0000 C   0  0  0  0  0  0  0  0  0  0  0  0
    2.1434    0.4125    0.0000 C   0  0  0  0  0  0  0  0  0  0  0  0
    1.4289   -0.0000    0.0000 S   0  0  0  0  0  0  0  0  0  0  0  0
    1.0164    0.7145    0.0000 O   0  0  0  0  0  0  0  0  0  0  0  0
    1.8414   -0.7145    0.0000 O   0  0  0  0  0  0  0  0  0  0  0  0
    0.7145   -0.4125    0.0000 N   0  0  0  0  0  0  0  0  0  0  0  0
    0.0000   -0.0000    0.0000 C   0  0  0  0  0  0  0  0  0  0  0  0
    0.7145   -1.2375    0.0000 C   0  0  0  0  0  0  0  0  0  0  0  0
    1.3819   -1.7224    0.0000 C   0  0  0  0  0  0  0  0  0  0  0  0
    1.1270   -2.5070    0.0000 C   0  0  0  0  0  0  0  0  0  0  0  0
    0.3020   -2.5070    0.0000 N   0  0  0  0  0  0  0  0  0  0  0  0
    0.0470   -1.7224    0.0000 N   0  0  0  0  0  0  0  0  0  0  0  0
   -0.7376   -1.4675    0.0000 C   0  0  0  0  0  0  0  0  0  0  0  0
   -1.3507   -2.0195    0.0000 C   0  0  0  0  0  0  0  0  0  0  0  0
   -2.1353   -1.7646    0.0000 C   0  0  0  0  0  0  0  0  0  0  0  0
   -2.3068   -0.9576    0.0000 C   0  0  0  0  0  0  0  0  0  0  0  0
   -1.6937   -0.4056    0.0000 C   0  0  0  0  0  0  0  0  0  0  0  0
   -0.9091   -0.6605    0.0000 C   0  0  0  0  0  0  0  0  0  0  0  0
    2.1434    1.2375    0.0000 C   0  0  0  0  0  0  0  0  0  0  0  0
    2.8579    1.6500    0.0000 C   0  0  0  0  0  0  0  0  0  0  0  0
  1  2  1  0  0  0  0
  2  3  4  0  0  0  0
  3  4  4  0  0  0  0
  4  5  4  0  0  0  0
  5  6  1  0  0  0  0
  6  7  2  0  0  0  0
  6  8  2  0  0  0  0
  6  9  1  0  0  0  0
  9 10  1  0  0  0  0
  9 11  1  0  0  0  0
 11 12  4  0  0  0  0
 12 13  4  0  0  0  0
 13 14  4  0  0  0  0
 14 15  4  0  0  0  0
 11 15  4  0  0  0  0
 15 16  1  0  0  0  0
 16 17  4  0  0  0  0
 17 18  4  0  0  0  0
 18 19  4  0  0  0  0
 19 20  4  0  0  0  0
 20 21  4  0  0  0  0
 16 21  4  0  0  0  0
  5 22  4  0  0  0  0
 22 23  4  0  0  0  0
  2 23  4  0  0  0  0
M  END
>  <CdId>
500

>  <Mol Weight>
327.4

>  <Formula>
C17H17N3O2S

>  <Molecule ChEMBL ID>
CHEMBL332958

>  <Molecule Max Phase>
None

>  <Molecular Weight>
327.41

>  <#RO5 Violations>
0

>  <AlogP>
3.01

>  <Compound Key>
23

>  <Standard Type>
IC50

>  <Standard Relation>
'='

>  <Standard Value>
180000.0

>  <Standard Units>
nM

$$$$

  Mrv2114 03112311372D          

 25 27  0  0  0  0            999 V2000
   -1.2375   -1.7605    0.0000 C   0  0  0  0  0  0  0  0  0  0  0  0
   -1.2375   -0.9355    0.0000 C   0  0  0  0  0  0  0  0  0  0  0  0
   -0.5230   -0.5230    0.0000 C   0  0  0  0  0  0  0  0  0  0  0  0
    0.1914   -0.9355    0.0000 N   0  0  0  0  0  0  0  0  0  0  0  0
    0.1914   -1.7605    0.0000 C   0  0  0  0  0  0  0  0  0  0  0  0
   -0.4760   -2.2455    0.0000 C   0  0  0  0  0  0  0  0  0  0  0  0
   -0.2211   -3.0301    0.0000 C   0  0  0  0  0  0  0  0  0  0  0  0
    0.6039   -3.0301    0.0000 N   0  0  0  0  0  0  0  0  0  0  0  0
    0.8589   -2.2455    0.0000 N   0  0  0  0  0  0  0  0  0  0  0  0
    1.6435   -1.9905    0.0000 C   0  0  0  0  0  0  0  0  0  0  0  0
    1.8150   -1.1835    0.0000 C   0  0  0  0  0  0  0  0  0  0  0  0
    2.5997   -0.9286    0.0000 C   0  0  0  0  0  0  0  0  0  0  0  0
    3.2127   -1.4806    0.0000 C   0  0  0  0  0  0  0  0  0  0  0  0
    3.0412   -2.2876    0.0000 C   0  0  0  0  0  0  0  0  0  0  0  0
    2.2566   -2.5425    0.0000 C   0  0  0  0  0  0  0  0  0  0  0  0
    0.9059   -0.5230    0.0000 S   0  0  0  0  0  0  0  0  0  0  0  0
    1.6204   -0.1105    0.0000 O   0  0  0  0  0  0  0  0  0  0  0  0
    1.3184   -1.2375    0.0000 O   0  0  0  0  0  0  0  0  0  0  0  0
    0.4934    0.1914    0.0000 C   0  0  0  0  0  0  0  0  0  0  0  0
   -0.3316    0.1914    0.0000 C   0  0  0  0  0  0  0  0  0  0  0  0
   -0.7441    0.9059    0.0000 C   0  0  0  0  0  0  0  0  0  0  0  0
   -0.3316    1.6204    0.0000 C   0  0  0  0  0  0  0  0  0  0  0  0
   -0.7441    2.3349    0.0000 N   0  0  0  0  0  0  0  0  0  0  0  0
    0.4934    1.6204    0.0000 C   0  0  0  0  0  0  0  0  0  0  0  0
    0.9059    0.9059    0.0000 C   0  0  0  0  0  0  0  0  0  0  0  0
  1  2  1  0  0  0  0
  2  3  1  0  0  0  0
  3  4  1  0  0  0  0
  4  5  1  0  0  0  0
  5  6  4  0  0  0  0
  6  7  4  0  0  0  0
  7  8  4  0  0  0  0
  8  9  4  0  0  0  0
  5  9  4  0  0  0  0
  9 10  1  0  0  0  0
 10 11  4  0  0  0  0
 11 12  4  0  0  0  0
 12 13  4  0  0  0  0
 13 14  4  0  0  0  0
 14 15  4  0  0  0  0
 10 15  4  0  0  0  0
  4 16  1  0  0  0  0
 16 17  2  0  0  0  0
 16 18  2  0  0  0  0
 16 19  1  0  0  0  0
 19 20  4  0  0  0  0
 20 21  4  0  0  0  0
 21 22  4  0  0  0  0
 22 23  1  0  0  0  0
 22 24  4  0  0  0  0
 24 25  4  0  0  0  0
 19 25  4  0  0  0  0
M  END
>  <CdId>
501

>  <Mol Weight>
356.44

>  <Formula>
C18H20N4O2S

>  <Molecule ChEMBL ID>
CHEMBL120183

>  <Molecule Max Phase>
None

>  <Molecular Weight>
356.45

>  <#RO5 Violations>
0

>  <AlogP>
3.06

>  <Compound Key>
8

>  <Standard Type>
IC50

>  <Standard Relation>
'='

>  <Standard Value>
8000.0

>  <Standard Units>
nM

$$$$

  Mrv2114 03112311372D          

 32 36  0  0  1  0            999 V2000
    0.6319   -2.9251    0.0000 C   0  0  0  0  0  0  0  0  0  0  0  0
    1.4440   -2.7799    0.0000 C   0  0  0  0  0  0  0  0  0  0  0  0
    2.2561   -2.6347    0.0000 C   0  0  0  0  0  0  0  0  0  0  0  0
    3.0683   -2.4895    0.0000 C   0  0  2  0  0  0  0  0  0  0  0  0
    3.1278   -3.3123    0.0000 O   0  0  0  0  0  0  0  0  0  0  0  0
    2.8390   -1.6970    0.0000 C   0  0  0  0  0  0  0  0  0  0  0  0
    3.5218   -1.2340    0.0000 C   0  0  0  0  0  0  0  0  0  0  0  0
    4.1731   -1.7404    0.0000 C   0  0  1  0  0  0  0  0  0  0  0  0
    4.9853   -1.5952    0.0000 C   0  0  2  0  0  0  0  0  0  0  0  0
    5.2655   -0.8192    0.0000 C   0  0  0  0  0  0  0  0  0  0  0  0
    6.0777   -0.6740    0.0000 C   0  0  0  0  0  0  0  0  0  0  0  0
    6.6095   -1.3047    0.0000 C   0  0  0  0  0  0  0  0  0  0  0  0
    7.4216   -1.1595    0.0000 C   0  0  0  0  0  0  0  0  0  0  0  0
    7.9534   -1.7902    0.0000 C   0  0  0  0  0  0  0  0  0  0  0  0
    8.7655   -1.6450    0.0000 O   0  0  0  0  0  0  0  0  0  0  0  0
    7.6731   -2.5662    0.0000 C   0  0  0  0  0  0  0  0  0  0  0  0
    6.8610   -2.7114    0.0000 C   0  0  0  0  0  0  0  0  0  0  0  0
    6.3292   -2.0807    0.0000 C   0  0  0  0  0  0  0  0  0  0  0  0
    5.5171   -2.2259    0.0000 C   0  0  0  0  0  0  0  0  0  0  0  0
    5.2368   -3.0018    0.0000 C   0  0  1  0  0  0  0  0  0  0  0  0
    5.7686   -3.6325    0.0000 C   0  0  0  0  0  0  0  0  0  0  0  0
    6.5807   -3.4873    0.0000 C   0  0  0  0  0  0  0  0  0  0  0  0
    7.1125   -4.1180    0.0000 C   0  0  0  0  0  0  0  0  0  0  0  0
    6.8322   -4.8939    0.0000 C   0  0  0  0  0  0  0  0  0  0  0  0
    7.3640   -5.5246    0.0000 N   0  0  0  0  0  0  0  0  0  0  0  0
    7.0838   -6.3006    0.0000 C   0  0  0  0  0  0  0  0  0  0  0  0
    8.1762   -5.3794    0.0000 C   0  0  0  0  0  0  0  0  0  0  0  0
    6.0201   -5.0391    0.0000 C   0  0  0  0  0  0  0  0  0  0  0  0
    5.4883   -4.4084    0.0000 C   0  0  0  0  0  0  0  0  0  0  0  0
    4.4247   -3.1470    0.0000 C   0  0  0  0  0  0  0  0  0  0  0  0
    3.8928   -2.5163    0.0000 C   0  0  2  0  0  0  0  0  0  0  0  0
    3.5330   -3.2587    0.0000 C   0  0  0  0  0  0  0  0  0  0  0  0
  1  2  1  0  0  0  0
  2  3  3  0  0  0  0
  4  3  1  6  0  0  0
  4  5  1  1  0  0  0
  4  6  1  0  0  0  0
  6  7  1  0  0  0  0
  8  7  1  1  0  0  0
  8  9  1  0  0  0  0
  9 10  1  6  0  0  0
 10 11  1  0  0  0  0
 11 12  1  0  0  0  0
 12 13  2  0  0  0  0
 13 14  1  0  0  0  0
 14 15  2  0  0  0  0
 14 16  1  0  0  0  0
 16 17  1  0  0  0  0
 17 18  1  0  0  0  0
 12 18  1  0  0  0  0
 18 19  2  0  0  0  0
  9 19  1  0  0  0  0
 20 19  1  0  0  0  0
 20 21  1  1  0  0  0
 21 22  4  0  0  0  0
 22 23  4  0  0  0  0
 23 24  4  0  0  0  0
 24 25  1  0  0  0  0
 25 26  1  0  0  0  0
 25 27  1  0  0  0  0
 24 28  4  0  0  0  0
 28 29  4  0  0  0  0
 21 29  4  0  0  0  0
 20 30  1  0  0  0  0
 31 30  1  0  0  0  0
  8 31  1  0  0  0  0
 31  4  1  0  0  0  0
 31 32  1  1  0  0  0
M  END
>  <CdId>
502

>  <Mol Weight>
429.604

>  <Formula>
C29H35NO2

>  <Molecule ChEMBL ID>
CHEMBL1276308

>  <Molecule Name>
MIFEPRISTONE

>  <Molecule Max Phase>
4

>  <Molecular Weight>
429.6

>  <#RO5 Violations>
1

>  <AlogP>
5.41

>  <Compound Key>
1

>  <Standard Type>
IC50

>  <Standard Relation>
'='

>  <Standard Value>
1500.0

>  <Standard Units>
nM

$$$$

  Mrv2114 03112311372D          

 20 21  0  0  0  0            999 V2000
    3.4656   -0.4741    0.0000 C   0  0  0  0  0  0  0  0  0  0  0  0
    2.7512   -0.8866    0.0000 C   0  0  0  0  0  0  0  0  0  0  0  0
    2.7512   -1.7116    0.0000 O   0  0  0  0  0  0  0  0  0  0  0  0
    2.0367   -2.1241    0.0000 C   0  0  0  0  0  0  0  0  0  0  0  0
    1.3222   -1.7116    0.0000 O   0  0  0  0  0  0  0  0  0  0  0  0
    2.0367   -2.9491    0.0000 N   0  0  0  0  0  0  0  0  0  0  0  0
    2.7041   -3.4340    0.0000 C   0  0  0  0  0  0  0  0  0  0  0  0
    2.4492   -4.2187    0.0000 C   0  0  0  0  0  0  0  0  0  0  0  0
    1.6242   -4.2187    0.0000 C   0  0  0  0  0  0  0  0  0  0  0  0
    1.1393   -4.8861    0.0000 C   0  0  0  0  0  0  0  0  0  0  0  0
    0.3188   -4.7999    0.0000 C   0  0  0  0  0  0  0  0  0  0  0  0
   -0.5017   -4.7136    0.0000 C   0  0  0  0  0  0  0  0  0  0  0  0
   -1.3222   -4.6274    0.0000 C   0  0  0  0  0  0  0  0  0  0  0  0
   -1.8071   -5.2948    0.0000 C   0  0  0  0  0  0  0  0  0  0  0  0
   -2.6276   -5.2086    0.0000 C   0  0  0  0  0  0  0  0  0  0  0  0
   -2.9631   -4.4549    0.0000 C   0  0  0  0  0  0  0  0  0  0  0  0
   -2.4782   -3.7875    0.0000 C   0  0  0  0  0  0  0  0  0  0  0  0
   -2.8138   -3.0338    0.0000 C   0  0  0  0  0  0  0  0  0  0  0  0
   -1.6577   -3.8737    0.0000 N   0  0  0  0  0  0  0  0  0  0  0  0
    1.3693   -3.4340    0.0000 C   0  0  0  0  0  0  0  0  0  0  0  0
  1  2  1  0  0  0  0
  2  3  1  0  0  0  0
  3  4  1  0  0  0  0
  4  5  2  0  0  0  0
  4  6  1  0  0  0  0
  6  7  1  0  0  0  0
  7  8  1  0  0  0  0
  8  9  1  0  0  0  0
  9 10  2  0  0  0  0
 10 11  1  4  0  0  0
 11 12  3  0  0  0  0
 12 13  1  0  0  0  0
 13 14  4  0  0  0  0
 14 15  4  0  0  0  0
 15 16  4  0  0  0  0
 16 17  4  0  0  0  0
 17 18  1  0  0  0  0
 17 19  4  0  0  0  0
 13 19  4  0  0  0  0
  9 20  1  0  0  0  0
  6 20  1  0  0  0  0
M  END
>  <CdId>
503

>  <Mol Weight>
270.332

>  <Formula>
C16H18N2O2

>  <Molecule ChEMBL ID>
CHEMBL4551786

>  <Molecule Max Phase>
None

>  <Molecular Weight>
270.33

>  <#RO5 Violations>
0

>  <AlogP>
2.53

>  <Compound Key>
12

>  <Standard Type>
IC50

>  <Standard Relation>
'>'

>  <Standard Value>
20000.0

>  <Standard Units>
nM

$$$$

  Mrv2114 03112311372D          

 22 24  0  0  0  0            999 V2000
    1.4289   -2.4750    0.0000 O   0  0  0  0  0  0  0  0  0  0  0  0
    1.4289   -1.6500    0.0000 C   0  0  0  0  0  0  0  0  0  0  0  0
    0.7145   -1.2375    0.0000 C   0  0  0  0  0  0  0  0  0  0  0  0
    0.0000   -1.6500    0.0000 O   0  0  0  0  0  0  0  0  0  0  0  0
    0.7145   -0.4125    0.0000 C   0  0  0  0  0  0  0  0  0  0  0  0
    0.0000    0.0000    0.0000 C   0  0  0  0  0  0  0  0  0  0  0  0
   -0.7145   -0.4125    0.0000 C   0  0  0  0  0  0  0  0  0  0  0  0
   -1.4289    0.0000    0.0000 C   0  0  0  0  0  0  0  0  0  0  0  0
   -1.4289    0.8250    0.0000 C   0  0  0  0  0  0  0  0  0  0  0  0
   -2.1434    1.2375    0.0000 O   0  0  0  0  0  0  0  0  0  0  0  0
   -0.7145    1.2375    0.0000 C   0  0  0  0  0  0  0  0  0  0  0  0
   -0.7145    2.0625    0.0000 O   0  0  0  0  0  0  0  0  0  0  0  0
    0.0000    0.8250    0.0000 C   0  0  0  0  0  0  0  0  0  0  0  0
    1.4289    0.0000    0.0000 O   0  0  0  0  0  0  0  0  0  0  0  0
    2.1434   -0.4125    0.0000 C   0  0  0  0  0  0  0  0  0  0  0  0
    2.8579    0.0000    0.0000 C   0  0  0  0  0  0  0  0  0  0  0  0
    3.5724   -0.4125    0.0000 C   0  0  0  0  0  0  0  0  0  0  0  0
    4.2868   -0.0000    0.0000 O   0  0  0  0  0  0  0  0  0  0  0  0
    3.5724   -1.2375    0.0000 C   0  0  0  0  0  0  0  0  0  0  0  0
    2.8579   -1.6500    0.0000 C   0  0  0  0  0  0  0  0  0  0  0  0
    2.8579   -2.4750    0.0000 O   0  0  0  0  0  0  0  0  0  0  0  0
    2.1434   -1.2375    0.0000 C   0  0  0  0  0  0  0  0  0  0  0  0
  1  2  2  0  0  0  0
  2  3  4  0  0  0  0
  3  4  1  0  0  0  0
  3  5  4  0  0  0  0
  5  6  1  0  0  0  0
  6  7  4  0  0  0  0
  7  8  4  0  0  0  0
  8  9  4  0  0  0  0
  9 10  1  0  0  0  0
  9 11  4  0  0  0  0
 11 12  1  0  0  0  0
 11 13  4  0  0  0  0
  6 13  4  0  0  0  0
  5 14  4  0  0  0  0
 14 15  4  0  0  0  0
 15 16  4  0  0  0  0
 16 17  4  0  0  0  0
 17 18  1  0  0  0  0
 17 19  4  0  0  0  0
 19 20  4  0  0  0  0
 20 21  1  0  0  0  0
 20 22  4  0  0  0  0
  2 22  4  0  0  0  0
 15 22  4  0  0  0  0
M  END
>  <CdId>
504

>  <Mol Weight>
302.238

>  <Formula>
C15H10O7

>  <Molecule ChEMBL ID>
CHEMBL50

>  <Molecule Name>
QUERCETIN

>  <Molecule Max Phase>
3

>  <Molecular Weight>
302.24

>  <#RO5 Violations>
0

>  <AlogP>
1.99

>  <Compound Key>
Quercetin

>  <Standard Type>
IC50

>  <Standard Relation>
'>'

>  <Standard Value>
20000.0

>  <Standard Units>
nM

$$$$

  Mrv2114 03112311372D          

 25 27  0  0  0  0            999 V2000
    4.1801   -0.1848    0.0000 C   0  0  0  0  0  0  0  0  0  0  0  0
    3.4656   -0.5973    0.0000 C   0  0  0  0  0  0  0  0  0  0  0  0
    2.7512   -0.1848    0.0000 C   0  0  0  0  0  0  0  0  0  0  0  0
    3.4656   -1.4223    0.0000 N   0  0  0  0  0  0  0  0  0  0  0  0
    2.7982   -1.9072    0.0000 N   0  0  0  0  0  0  0  0  0  0  0  0
    3.0531   -2.6919    0.0000 C   0  0  0  0  0  0  0  0  0  0  0  0
    3.8781   -2.6919    0.0000 C   0  0  0  0  0  0  0  0  0  0  0  0
    4.1331   -1.9072    0.0000 C   0  0  0  0  0  0  0  0  0  0  0  0
    4.9177   -1.6523    0.0000 C   0  0  0  0  0  0  0  0  0  0  0  0
    5.0892   -0.8453    0.0000 N   0  0  0  0  0  0  0  0  0  0  0  0
    5.8739   -0.5904    0.0000 C   0  0  0  0  0  0  0  0  0  0  0  0
    6.4870   -1.1424    0.0000 C   0  0  0  0  0  0  0  0  0  0  0  0
    6.3154   -1.9494    0.0000 C   0  0  0  0  0  0  0  0  0  0  0  0
    5.5308   -2.2043    0.0000 C   0  0  0  0  0  0  0  0  0  0  0  0
    5.3593   -3.0113    0.0000 C   0  0  0  0  0  0  0  0  0  0  0  0
    5.9724   -3.5633    0.0000 O   0  0  0  0  0  0  0  0  0  0  0  0
    5.8008   -4.3703    0.0000 C   0  0  0  0  0  0  0  0  0  0  0  0
    6.4139   -4.9223    0.0000 C   0  0  0  0  0  0  0  0  0  0  0  0
    6.2424   -5.7293    0.0000 C   0  0  0  0  0  0  0  0  0  0  0  0
    5.4578   -5.9843    0.0000 C   0  0  0  0  0  0  0  0  0  0  0  0
    4.8447   -5.4322    0.0000 C   0  0  0  0  0  0  0  0  0  0  0  0
    4.0601   -5.6872    0.0000 O   0  0  0  0  0  0  0  0  0  0  0  0
    5.0162   -4.6253    0.0000 C   0  0  0  0  0  0  0  0  0  0  0  0
    4.4031   -4.0732    0.0000 C   0  0  0  0  0  0  0  0  0  0  0  0
    4.5747   -3.2662    0.0000 O   0  0  0  0  0  0  0  0  0  0  0  0
  1  2  1  0  0  0  0
  2  3  1  0  0  0  0
  2  4  1  0  0  0  0
  4  5  4  0  0  0  0
  5  6  4  0  0  0  0
  6  7  4  0  0  0  0
  7  8  4  0  0  0  0
  4  8  4  0  0  0  0
  8  9  1  0  0  0  0
  9 10  4  0  0  0  0
 10 11  4  0  0  0  0
 11 12  4  0  0  0  0
 12 13  4  0  0  0  0
 13 14  4  0  0  0  0
  9 14  4  0  0  0  0
 14 15  1  0  0  0  0
 15 16  1  0  0  0  0
 16 17  1  0  0  0  0
 17 18  4  0  0  0  0
 18 19  4  0  0  0  0
 19 20  4  0  0  0  0
 20 21  4  0  0  0  0
 21 22  1  0  0  0  0
 21 23  4  0  0  0  0
 17 23  4  0  0  0  0
 23 24  1  0  0  0  0
 24 25  2  0  0  0  0
M  END
>  <CdId>
505

>  <Mol Weight>
337.379

>  <Formula>
C19H19N3O3

>  <Molecule ChEMBL ID>
CHEMBL4101807

>  <Molecule Name>
VOXELOTOR

>  <Molecule Max Phase>
4

>  <Molecular Weight>
337.38

>  <#RO5 Violations>
0

>  <AlogP>
3.62

>  <Compound Key>
36; GBT440

>  <Standard Type>
IC50

>  <Standard Relation>
'='

>  <Standard Value>
7900.0

>  <Standard Units>
nM

$$$$

  Mrv2114 03112311372D          

 30 33  0  0  0  0            999 V2000
    0.0579   -5.6690    0.0000 H   0  0  0  0  0  0  0  0  0  0  0  0
    0.6710   -5.1170    0.0000 C   0  0  0  0  0  0  0  0  0  0  0  0
    1.2230   -5.7301    0.0000 H   0  0  0  0  0  0  0  0  0  0  0  0
    1.2841   -4.5649    0.0000 H   0  0  0  0  0  0  0  0  0  0  0  0
    0.1190   -4.5039    0.0000 O   0  0  0  0  0  0  0  0  0  0  0  0
    0.3739   -3.7192    0.0000 C   0  0  0  0  0  0  0  0  0  0  0  0
   -0.1781   -3.1062    0.0000 C   0  0  0  0  0  0  0  0  0  0  0  0
    0.0768   -2.3215    0.0000 C   0  0  0  0  0  0  0  0  0  0  0  0
    0.8838   -2.1500    0.0000 C   0  0  0  0  0  0  0  0  0  0  0  0
    1.1387   -1.3654    0.0000 C   0  0  0  0  0  0  0  0  0  0  0  0
    0.6538   -0.6979    0.0000 C   0  0  0  0  0  0  0  0  0  0  0  0
   -0.1712   -0.6979    0.0000 C   0  0  0  0  0  0  0  0  0  0  0  0
   -0.5837   -1.4124    0.0000 C   0  0  0  0  0  0  0  0  0  0  0  0
   -1.4087   -1.4124    0.0000 C   0  0  0  0  0  0  0  0  0  0  0  0
   -1.8212   -0.6979    0.0000 N   0  0  0  0  0  0  0  0  0  0  0  0
   -1.4087    0.0165    0.0000 C   0  0  0  0  0  0  0  0  0  0  0  0
   -1.8212    0.7310    0.0000 N   0  0  0  0  0  0  0  0  0  0  0  0
   -1.4087    1.4455    0.0000 C   0  0  0  0  0  0  0  0  0  0  0  0
   -1.8212    2.1599    0.0000 C   0  0  0  0  0  0  0  0  0  0  0  0
   -0.5837    1.4455    0.0000 O   0  0  0  0  0  0  0  0  0  0  0  0
   -0.5837    0.0165    0.0000 C   0  0  0  0  0  0  0  0  0  0  0  0
    1.1387   -0.0305    0.0000 N   0  0  0  0  0  0  0  0  0  0  0  0
    1.9233   -0.2854    0.0000 C   0  0  0  0  0  0  0  0  0  0  0  0
    2.6378    0.1271    0.0000 C   0  0  0  0  0  0  0  0  0  0  0  0
    3.3523   -0.2854    0.0000 C   0  0  0  0  0  0  0  0  0  0  0  0
    3.3523   -1.1104    0.0000 C   0  0  0  0  0  0  0  0  0  0  0  0
    2.6378   -1.5229    0.0000 N   0  0  0  0  0  0  0  0  0  0  0  0
    1.9233   -1.1104    0.0000 C   0  0  0  0  0  0  0  0  0  0  0  0
    1.4358   -2.7631    0.0000 N   0  0  0  0  0  0  0  0  0  0  0  0
    1.1809   -3.5477    0.0000 C   0  0  0  0  0  0  0  0  0  0  0  0
  1  2  1  0  0  0  0
  2  3  1  0  0  0  0
  2  4  1  0  0  0  0
  2  5  1  0  0  0  0
  5  6  1  0  0  0  0
  6  7  4  0  0  0  0
  7  8  4  0  0  0  0
  8  9  4  0  0  0  0
  9 10  1  0  0  0  0
 10 11  4  0  0  0  0
 11 12  1  0  0  0  0
 12 13  4  0  0  0  0
 13 14  4  0  0  0  0
 14 15  4  0  0  0  0
 15 16  4  0  0  0  0
 16 17  1  0  0  0  0
 17 18  1  0  0  0  0
 18 19  1  0  0  0  0
 18 20  2  0  0  0  0
 16 21  4  0  0  0  0
 12 21  4  0  0  0  0
 11 22  4  0  0  0  0
 22 23  4  0  0  0  0
 23 24  4  0  0  0  0
 24 25  4  0  0  0  0
 25 26  4  0  0  0  0
 26 27  4  0  0  0  0
 27 28  4  0  0  0  0
 10 28  4  0  0  0  0
 23 28  4  0  0  0  0
  9 29  4  0  0  0  0
 29 30  4  0  0  0  0
  6 30  4  0  0  0  0
M  ISO  3   1   2   3   2   4   2
M  STY  1   1 DAT
M  SAL   1  1  22
M  SDT   1 MRV_IMPLICIT_H                                        
M  SDD   1     0.0000    0.0000    DR    ALL  0       0  
M  SED   1 IMPL_H1
M  END
>  <CdId>
506

>  <Mol Weight>
362.407

>  <Formula>
C20H17N5O2

>  <Molecule ChEMBL ID>
CHEMBL4280731

>  <Molecule Max Phase>
None

>  <Molecular Weight>
362.41

>  <#RO5 Violations>
0

>  <AlogP>
3.65

>  <Compound Key>
3f

>  <Standard Type>
IC50

>  <Standard Relation>
'>'

>  <Standard Value>
20000.0

>  <Standard Units>
nM

$$$$

  Mrv2114 03112311372D          

 31 34  0  0  0  0            999 V2000
    2.1434   -3.7125    0.0000 C   0  0  0  0  0  0  0  0  0  0  0  0
    2.8579   -4.1250    0.0000 O   0  0  0  0  0  0  0  0  0  0  0  0
    2.8579   -4.9500    0.0000 C   0  0  0  0  0  0  0  0  0  0  0  0
    3.5724   -5.3625    0.0000 C   0  0  0  0  0  0  0  0  0  0  0  0
    3.5724   -6.1875    0.0000 C   0  0  0  0  0  0  0  0  0  0  0  0
    4.2868   -6.6000    0.0000 C   0  0  0  0  0  0  0  0  0  0  0  0
    5.0013   -6.1875    0.0000 C   0  0  0  0  0  0  0  0  0  0  0  0
    5.7158   -6.6000    0.0000 N   0  0  0  0  0  0  0  0  0  0  0  0
    5.7158   -7.4250    0.0000 C   0  0  0  0  0  0  0  0  0  0  0  0
    5.0013   -7.8375    0.0000 C   0  0  0  0  0  0  0  0  0  0  0  0
    5.0013   -8.6625    0.0000 C   0  0  0  0  0  0  0  0  0  0  0  0
    5.7158   -9.0750    0.0000 C   0  0  0  0  0  0  0  0  0  0  0  0
    5.7158   -9.9000    0.0000 C   0  0  0  0  0  0  0  0  0  0  0  0
    5.0013  -10.3125    0.0000 C   0  0  0  0  0  0  0  0  0  0  0  0
    5.0013  -11.1375    0.0000 N   0  0  0  0  0  0  0  0  0  0  0  0
    5.7158  -11.5500    0.0000 C   0  0  0  0  0  0  0  0  0  0  0  0
    5.7158  -12.3750    0.0000 C   0  0  0  0  0  0  0  0  0  0  0  0
    5.0013  -12.7875    0.0000 N   0  0  0  0  0  0  0  0  0  0  0  0
    4.2868  -12.3750    0.0000 C   0  0  0  0  0  0  0  0  0  0  0  0
    4.2868  -11.5500    0.0000 C   0  0  0  0  0  0  0  0  0  0  0  0
    4.2868   -9.9000    0.0000 C   0  0  0  0  0  0  0  0  0  0  0  0
    4.2868   -9.0750    0.0000 C   0  0  0  0  0  0  0  0  0  0  0  0
    4.2868   -7.4250    0.0000 C   0  0  0  0  0  0  0  0  0  0  0  0
    3.5724   -7.8375    0.0000 C   0  0  0  0  0  0  0  0  0  0  0  0
    2.8579   -6.6000    0.0000 C   0  0  0  0  0  0  0  0  0  0  0  0
    2.1434   -6.1875    0.0000 C   0  0  0  0  0  0  0  0  0  0  0  0
    1.4289   -6.6000    0.0000 O   0  0  0  0  0  0  0  0  0  0  0  0
    0.7145   -6.1875    0.0000 C   0  0  0  0  0  0  0  0  0  0  0  0
    2.1434   -5.3625    0.0000 C   0  0  0  0  0  0  0  0  0  0  0  0
    1.4289   -4.9500    0.0000 O   0  0  0  0  0  0  0  0  0  0  0  0
    0.7145   -5.3625    0.0000 C   0  0  0  0  0  0  0  0  0  0  0  0
  1  2  1  0  0  0  0
  2  3  1  0  0  0  0
  3  4  4  0  0  0  0
  4  5  4  0  0  0  0
  5  6  1  0  0  0  0
  6  7  4  0  0  0  0
  7  8  4  0  0  0  0
  8  9  4  0  0  0  0
  9 10  4  0  0  0  0
 10 11  1  0  0  0  0
 11 12  4  0  0  0  0
 12 13  4  0  0  0  0
 13 14  4  0  0  0  0
 14 15  1  0  0  0  0
 15 16  1  0  0  0  0
 16 17  1  0  0  0  0
 17 18  1  0  0  0  0
 18 19  1  0  0  0  0
 19 20  1  0  0  0  0
 15 20  1  0  0  0  0
 14 21  4  0  0  0  0
 21 22  4  0  0  0  0
 11 22  4  0  0  0  0
 10 23  4  0  0  0  0
  6 23  4  0  0  0  0
 23 24  1  0  0  0  0
  5 25  4  0  0  0  0
 25 26  4  0  0  0  0
 26 27  1  0  0  0  0
 27 28  1  0  0  0  0
 26 29  4  0  0  0  0
  3 29  4  0  0  0  0
 29 30  1  0  0  0  0
 30 31  1  0  0  0  0
M  END
>  <CdId>
507

>  <Mol Weight>
419.525

>  <Formula>
C25H29N3O3

>  <Molecule ChEMBL ID>
CHEMBL4517408

>  <Molecule Max Phase>
None

>  <Molecular Weight>
419.53

>  <#RO5 Violations>
0

>  <AlogP>
4.16

>  <Compound Key>
6a; M4K2009

>  <Standard Type>
IC50

>  <Standard Relation>
'>'

>  <Standard Value>
30000.0

>  <Standard Units>
nM

$$$$

  Mrv2114 03112311372D          

 30 32  0  0  0  0            999 V2000
   -5.0013   -1.2375    0.0000 O   0  0  0  0  0  0  0  0  0  0  0  0
   -4.2868   -1.6500    0.0000 C   0  0  0  0  0  0  0  0  0  0  0  0
   -4.2868   -2.4750    0.0000 O   0  0  0  0  0  0  0  0  0  0  0  0
   -3.5724   -1.2375    0.0000 C   0  0  0  0  0  0  0  0  0  0  0  0
   -2.8579   -1.6500    0.0000 O   0  0  0  0  0  0  0  0  0  0  0  0
   -2.1434   -1.2375    0.0000 C   0  0  0  0  0  0  0  0  0  0  0  0
   -1.4289   -1.6500    0.0000 C   0  0  1  0  0  0  0  0  0  0  0  0
   -0.7145   -1.2375    0.0000 C   0  0  0  0  0  0  0  0  0  0  0  0
    0.0000   -1.6500    0.0000 C   0  0  0  0  0  0  0  0  0  0  0  0
    0.0000   -2.4750    0.0000 C   0  0  2  0  0  0  0  0  0  0  0  0
    0.7145   -2.8875    0.0000 C   0  0  0  0  0  0  0  0  0  0  0  0
    1.4289   -2.4750    0.0000 O   0  0  0  0  0  0  0  0  0  0  0  0
    2.1434   -2.8875    0.0000 C   0  0  0  0  0  0  0  0  0  0  0  0
    2.1434   -3.7125    0.0000 O   0  0  0  0  0  0  0  0  0  0  0  0
    2.8579   -2.4750    0.0000 N   0  0  0  0  0  0  0  0  0  0  0  0
    2.8579   -1.6500    0.0000 C   0  0  0  0  0  0  0  0  0  0  0  0
    2.1434   -1.2375    0.0000 C   0  0  0  0  0  0  0  0  0  0  0  0
    2.1434   -0.4125    0.0000 C   0  0  0  0  0  0  0  0  0  0  0  0
    2.8579    0.0000    0.0000 C   0  0  0  0  0  0  0  0  0  0  0  0
    3.5724   -0.4125    0.0000 C   0  0  0  0  0  0  0  0  0  0  0  0
    3.5724   -1.2375    0.0000 C   0  0  0  0  0  0  0  0  0  0  0  0
    3.5724   -2.8875    0.0000 C   0  0  0  0  0  0  0  0  0  0  0  0
    4.2868   -2.4750    0.0000 C   0  0  0  0  0  0  0  0  0  0  0  0
    5.0013   -2.8875    0.0000 C   0  0  0  0  0  0  0  0  0  0  0  0
    5.0013   -3.7125    0.0000 C   0  0  0  0  0  0  0  0  0  0  0  0
    5.7158   -4.1250    0.0000 Cl  0  0  0  0  0  0  0  0  0  0  0  0
    4.2868   -4.1250    0.0000 C   0  0  0  0  0  0  0  0  0  0  0  0
    3.5724   -3.7125    0.0000 C   0  0  0  0  0  0  0  0  0  0  0  0
   -0.7145   -2.8875    0.0000 C   0  0  0  0  0  0  0  0  0  0  0  0
   -1.4289   -2.4750    0.0000 C   0  0  0  0  0  0  0  0  0  0  0  0
  1  2  2  0  0  0  0
  2  3  1  0  0  0  0
  2  4  1  0  0  0  0
  4  5  1  0  0  0  0
  5  6  1  0  0  0  0
  7  6  1  1  0  0  0
  7  8  1  0  0  0  0
  8  9  1  0  0  0  0
 10  9  1  0  0  0  0
 10 11  1  6  0  0  0
 11 12  1  0  0  0  0
 12 13  1  0  0  0  0
 13 14  2  0  0  0  0
 13 15  1  0  0  0  0
 15 16  1  0  0  0  0
 16 17  4  0  0  0  0
 17 18  4  0  0  0  0
 18 19  4  0  0  0  0
 19 20  4  0  0  0  0
 20 21  4  0  0  0  0
 16 21  4  0  0  0  0
 15 22  1  0  0  0  0
 22 23  4  0  0  0  0
 23 24  4  0  0  0  0
 24 25  4  0  0  0  0
 25 26  1  0  0  0  0
 25 27  4  0  0  0  0
 27 28  4  0  0  0  0
 22 28  4  0  0  0  0
 10 29  1  0  0  0  0
 29 30  1  0  0  0  0
  7 30  1  0  0  0  0
M  END
>  <CdId>
508

>  <Mol Weight>
431.91

>  <Formula>
C23H26ClNO5

>  <Molecule ChEMBL ID>
CHEMBL3301604

>  <Molecule Name>
RALINEPAG

>  <Molecule Max Phase>
3

>  <Molecular Weight>
431.92

>  <#RO5 Violations>
1

>  <AlogP>
5.52

>  <Compound Key>
5c

>  <Standard Type>
IC50

>  <Standard Relation>
'>'

>  <Standard Value>
50000.0

>  <Standard Units>
nM

$$$$

  Mrv2114 03112311372D          

 20 20  0  0  0  0            999 V2000
    2.8579   -6.6000    0.0000 C   0  0  0  0  0  0  0  0  0  0  0  0
    3.5724   -6.1875    0.0000 C   0  0  0  0  0  0  0  0  0  0  0  0
    4.2868   -6.6000    0.0000 C   0  0  0  0  0  0  0  0  0  0  0  0
    5.0013   -6.1875    0.0000 C   0  0  0  0  0  0  0  0  0  0  0  0
    5.7158   -6.6000    0.0000 C   0  0  0  0  0  0  0  0  0  0  0  0
    6.4302   -6.1875    0.0000 C   0  0  0  0  0  0  0  0  0  0  0  0
    7.1447   -6.6000    0.0000 C   0  0  0  0  0  0  0  0  0  0  0  0
    7.8592   -6.1875    0.0000 C   0  0  0  0  0  0  0  0  0  0  0  0
    7.8592   -5.3625    0.0000 O   0  0  0  0  0  0  0  0  0  0  0  0
    8.5737   -6.6000    0.0000 C   0  0  0  0  0  0  0  0  0  0  0  0
    9.2881   -6.1875    0.0000 C   0  0  0  0  0  0  0  0  0  0  0  0
   10.0026   -6.6000    0.0000 C   0  0  0  0  0  0  0  0  0  0  0  0
   10.7171   -6.1875    0.0000 C   0  0  0  0  0  0  0  0  0  0  0  0
   11.4315   -6.6000    0.0000 C   0  0  0  0  0  0  0  0  0  0  0  0
   11.4315   -7.4250    0.0000 C   0  0  0  0  0  0  0  0  0  0  0  0
   12.1460   -7.8375    0.0000 O   0  0  0  0  0  0  0  0  0  0  0  0
   10.7171   -7.8375    0.0000 C   0  0  0  0  0  0  0  0  0  0  0  0
   10.7171   -8.6625    0.0000 O   0  0  0  0  0  0  0  0  0  0  0  0
   10.0026   -9.0750    0.0000 C   0  0  0  0  0  0  0  0  0  0  0  0
   10.0026   -7.4250    0.0000 C   0  0  0  0  0  0  0  0  0  0  0  0
  1  2  1  0  0  0  0
  2  3  1  0  0  0  0
  3  4  1  0  0  0  0
  4  5  1  0  0  0  0
  5  6  1  0  0  0  0
  6  7  1  0  0  0  0
  7  8  1  0  0  0  0
  8  9  2  0  0  0  0
  8 10  1  0  0  0  0
 10 11  1  0  0  0  0
 11 12  1  0  0  0  0
 12 13  4  0  0  0  0
 13 14  4  0  0  0  0
 14 15  4  0  0  0  0
 15 16  1  0  0  0  0
 15 17  4  0  0  0  0
 17 18  1  0  0  0  0
 18 19  1  0  0  0  0
 17 20  4  0  0  0  0
 12 20  4  0  0  0  0
M  END
>  <CdId>
509

>  <Mol Weight>
278.392

>  <Formula>
C17H26O3

>  <Molecule ChEMBL ID>
CHEMBL2071440

>  <Molecule Max Phase>
None

>  <Molecular Weight>
278.39

>  <#RO5 Violations>
0

>  <AlogP>
4.26

>  <Compound Key>
6-Paradol

>  <Standard Type>
IC50

>  <Standard Relation>
'='

>  <Standard Value>
3800.0

>  <Standard Units>
nM

$$$$

  Mrv2114 03112311372D          

 38 41  0  0  0  0            999 V2000
    0.7145   -0.4125    0.0000 C   0  0  0  0  0  0  0  0  0  0  0  0
    0.0000   -0.0000    0.0000 C   0  0  0  0  0  0  0  0  0  0  0  0
   -0.7145   -0.4125    0.0000 N   0  0  0  0  0  0  0  0  0  0  0  0
   -0.7145   -1.2375    0.0000 C   0  0  0  0  0  0  0  0  0  0  0  0
    0.0000   -1.6500    0.0000 C   0  0  0  0  0  0  0  0  0  0  0  0
    0.0000   -2.4750    0.0000 C   0  0  0  0  0  0  0  0  0  0  0  0
    0.7145   -2.8875    0.0000 C   0  0  0  0  0  0  0  0  0  0  0  0
    1.4289   -3.3000    0.0000 C   0  0  0  0  0  0  0  0  0  0  0  0
    2.1434   -3.7125    0.0000 C   0  0  0  0  0  0  0  0  0  0  0  0
    2.8579   -3.3000    0.0000 C   0  0  0  0  0  0  0  0  0  0  0  0
    3.5724   -3.7125    0.0000 C   0  0  0  0  0  0  0  0  0  0  0  0
    3.5724   -4.5375    0.0000 N   0  0  0  0  0  0  0  0  0  0  0  0
    4.2868   -4.9500    0.0000 C   0  0  0  0  0  0  0  0  0  0  0  0
    2.8579   -4.9500    0.0000 C   0  0  0  0  0  0  0  0  0  0  0  0
    2.1434   -4.5375    0.0000 C   0  0  0  0  0  0  0  0  0  0  0  0
   -0.7145   -2.8875    0.0000 C   0  0  0  0  0  0  0  0  0  0  0  0
   -1.4289   -2.4750    0.0000 C   0  0  0  0  0  0  0  0  0  0  0  0
   -2.1434   -2.8875    0.0000 C   0  0  0  0  0  0  0  0  0  0  0  0
   -2.1434   -3.7125    0.0000 O   0  0  0  0  0  0  0  0  0  0  0  0
   -2.8579   -2.4750    0.0000 N   0  0  0  0  0  0  0  0  0  0  0  0
   -3.5724   -2.8875    0.0000 C   0  0  0  0  0  0  0  0  0  0  0  0
   -4.2868   -2.4750    0.0000 C   0  0  0  0  0  0  0  0  0  0  0  0
   -5.0013   -2.8875    0.0000 C   0  0  0  0  0  0  0  0  0  0  0  0
   -5.0013   -3.7125    0.0000 C   0  0  0  0  0  0  0  0  0  0  0  0
   -5.7158   -2.4750    0.0000 C   0  0  0  0  0  0  0  0  0  0  0  0
   -5.7158   -1.6500    0.0000 C   0  0  0  0  0  0  0  0  0  0  0  0
   -6.4302   -1.2375    0.0000 C   0  0  0  0  0  0  0  0  0  0  0  0
   -5.0013   -1.2375    0.0000 N   0  0  0  0  0  0  0  0  0  0  0  0
   -4.2868   -1.6500    0.0000 C   0  0  0  0  0  0  0  0  0  0  0  0
   -3.5724   -1.2375    0.0000 O   0  0  0  0  0  0  0  0  0  0  0  0
   -1.4289   -1.6500    0.0000 C   0  0  0  0  0  0  0  0  0  0  0  0
   -2.1434   -1.2375    0.0000 C   0  0  0  0  0  0  0  0  0  0  0  0
   -1.4289   -0.0000    0.0000 C   0  0  0  0  0  0  0  0  0  0  0  0
   -2.1434   -0.4125    0.0000 C   0  0  0  0  0  0  0  0  0  0  0  0
   -2.8579    0.0000    0.0000 C   0  0  0  0  0  0  0  0  0  0  0  0
   -2.8579    0.8250    0.0000 O   0  0  0  0  0  0  0  0  0  0  0  0
   -2.1434    1.2375    0.0000 C   0  0  0  0  0  0  0  0  0  0  0  0
   -1.4289    0.8250    0.0000 C   0  0  0  0  0  0  0  0  0  0  0  0
  1  2  1  0  0  0  0
  2  3  1  0  0  0  0
  3  4  1  0  0  0  0
  4  5  4  0  0  0  0
  5  6  4  0  0  0  0
  6  7  1  0  0  0  0
  7  8  3  0  0  0  0
  8  9  1  0  0  0  0
  9 10  1  0  0  0  0
 10 11  1  0  0  0  0
 11 12  1  0  0  0  0
 12 13  1  0  0  0  0
 12 14  1  0  0  0  0
 14 15  1  0  0  0  0
  9 15  1  0  0  0  0
  6 16  4  0  0  0  0
 16 17  4  0  0  0  0
 17 18  1  0  0  0  0
 18 19  2  0  0  0  0
 18 20  1  0  0  0  0
 20 21  1  0  0  0  0
 21 22  1  0  0  0  0
 22 23  4  0  0  0  0
 23 24  1  0  0  0  0
 23 25  4  0  0  0  0
 25 26  4  0  0  0  0
 26 27  1  0  0  0  0
 26 28  4  0  0  0  0
 28 29  4  0  0  0  0
 22 29  4  0  0  0  0
 29 30  2  0  0  0  0
 17 31  4  0  0  0  0
  4 31  4  0  0  0  0
 31 32  1  0  0  0  0
  3 33  1  0  0  0  0
 33 34  1  0  0  0  0
 34 35  1  0  0  0  0
 35 36  1  0  0  0  0
 36 37  1  0  0  0  0
 37 38  1  0  0  0  0
 33 38  1  0  0  0  0
M  STY  1   1 DAT
M  SAL   1  1  28
M  SDT   1 MRV_IMPLICIT_H                                        
M  SDD   1     0.0000    0.0000    DR    ALL  0       0  
M  SED   1 IMPL_H1
M  END
>  <CdId>
510

>  <Mol Weight>
518.702

>  <Formula>
C31H42N4O3

>  <Molecule ChEMBL ID>
CHEMBL3672842

>  <Molecule Max Phase>
None

>  <Molecular Weight>
518.7

>  <#RO5 Violations>
1

>  <AlogP>
3.93

>  <Compound Key>
BDBM155255

>  <Standard Type>
IC50

>  <Standard Relation>
'='

>  <Standard Value>
47430.0

>  <Standard Units>
nM

$$$$

  Mrv2114 03112311372D          

 32 36  0  0  1  0            999 V2000
   12.0371    9.0477    0.0000 C   0  0  0  0  0  0  0  0  0  0  0  0
   11.4240    9.5998    0.0000 C   0  0  0  0  0  0  0  0  0  0  0  0
   10.6170    9.4282    0.0000 C   0  0  0  0  0  0  0  0  0  0  0  0
   10.2814    8.6746    0.0000 N   0  0  0  0  0  0  0  0  0  0  0  0
   10.6939    7.9601    0.0000 C   0  0  0  0  0  0  0  0  0  0  0  0
   10.1419    7.3470    0.0000 C   0  0  0  0  0  0  0  0  0  0  0  0
    9.3882    7.6826    0.0000 C   0  0  0  0  0  0  0  0  0  0  0  0
    9.3882    6.8576    0.0000 C   0  0  0  0  0  0  0  0  0  0  0  0
    8.6738    6.4451    0.0000 C   0  0  0  0  0  0  0  0  0  0  0  0
    7.9593    6.8576    0.0000 N   0  0  0  0  0  0  0  0  0  0  0  0
    7.2448    6.4451    0.0000 C   0  0  0  0  0  0  0  0  0  0  0  0
    6.5303    6.8576    0.0000 C   0  0  2  0  0  0  0  0  0  0  0  0
    6.5303    7.6826    0.0000 O   0  0  0  0  0  0  0  0  0  0  0  0
    5.8159    6.4451    0.0000 C   0  0  0  0  0  0  0  0  0  0  0  0
    5.8159    5.6201    0.0000 C   0  0  0  0  0  0  0  0  0  0  0  0
    5.1014    5.2076    0.0000 C   0  0  0  0  0  0  0  0  0  0  0  0
    4.3869    5.6201    0.0000 C   0  0  0  0  0  0  0  0  0  0  0  0
    4.3869    6.4451    0.0000 C   0  0  0  0  0  0  0  0  0  0  0  0
    5.1014    6.8576    0.0000 C   0  0  0  0  0  0  0  0  0  0  0  0
    5.1014    7.6826    0.0000 C   0  0  0  0  0  0  0  0  0  0  0  0
    3.6023    6.7000    0.0000 C   0  0  0  0  0  0  0  0  0  0  0  0
    3.1174    6.0326    0.0000 O   0  0  0  0  0  0  0  0  0  0  0  0
    3.6023    5.3651    0.0000 C   0  0  0  0  0  0  0  0  0  0  0  0
    3.3474    4.5805    0.0000 O   0  0  0  0  0  0  0  0  0  0  0  0
    7.9593    7.6826    0.0000 C   0  0  0  0  0  0  0  0  0  0  0  0
    8.6738    8.0951    0.0000 C   0  0  0  0  0  0  0  0  0  0  0  0
    9.4745    8.5030    0.0000 C   0  0  0  0  0  0  0  0  0  0  0  0
    8.8614    9.0551    0.0000 O   0  0  0  0  0  0  0  0  0  0  0  0
   10.2045   10.1427    0.0000 C   0  0  0  0  0  0  0  0  0  0  0  0
   10.7565   10.7558    0.0000 O   0  0  0  0  0  0  0  0  0  0  0  0
   11.5102   10.4202    0.0000 C   0  0  0  0  0  0  0  0  0  0  0  0
   12.2247   10.8327    0.0000 O   0  0  0  0  0  0  0  0  0  0  0  0
  1  2  1  0  0  0  0
  2  3  2  0  0  0  0
  3  4  1  0  0  0  0
  4  5  1  0  0  0  0
  5  6  1  0  0  0  0
  6  7  1  0  0  0  0
  7  8  1  0  0  0  0
  8  9  1  0  0  0  0
  9 10  1  0  0  0  0
 10 11  1  0  0  0  0
 12 11  1  0  0  0  0
 12 13  1  1  0  0  0
 12 14  1  0  0  0  0
 14 15  4  0  0  0  0
 15 16  4  0  0  0  0
 16 17  4  0  0  0  0
 17 18  4  0  0  0  0
 18 19  4  0  0  0  0
 14 19  4  0  0  0  0
 19 20  1  0  0  0  0
 18 21  1  0  0  0  0
 21 22  1  0  0  0  0
 22 23  1  0  0  0  0
 17 23  1  0  0  0  0
 23 24  2  0  0  0  0
 10 25  1  0  0  0  0
 25 26  1  0  0  0  0
  7 26  1  0  0  0  0
  7 27  1  0  0  0  0
  4 27  1  0  0  0  0
 27 28  2  0  0  0  0
  3 29  1  0  0  0  0
 29 30  1  0  0  0  0
 30 31  1  0  0  0  0
  2 31  1  0  0  0  0
 31 32  2  0  0  0  0
M  END
>  <CdId>
511

>  <Mol Weight>
440.496

>  <Formula>
C24H28N2O6

>  <Molecule ChEMBL ID>
CHEMBL3913475

>  <Molecule Max Phase>
None

>  <Molecular Weight>
440.5

>  <#RO5 Violations>
0

>  <AlogP>
1.84

>  <Compound Key>
22e

>  <Standard Type>
IC50

>  <Standard Relation>
'>'

>  <Standard Value>
50000.0

>  <Standard Units>
nM

$$$$

  Mrv2114 03112311372D          

 29 31  0  0  0  0            999 V2000
    3.4990    1.1104    0.0000 C   0  0  0  0  0  0  0  0  0  0  0  0
    2.7845    0.6979    0.0000 C   0  0  0  0  0  0  0  0  0  0  0  0
    2.0701    1.1104    0.0000 N   0  0  0  0  0  0  0  0  0  0  0  0
    1.3556    0.6979    0.0000 C   0  0  0  0  0  0  0  0  0  0  0  0
    1.3556   -0.1271    0.0000 O   0  0  0  0  0  0  0  0  0  0  0  0
    0.6411    1.1104    0.0000 C   0  0  0  0  0  0  0  0  0  0  0  0
   -0.1435    0.8555    0.0000 C   0  0  0  0  0  0  0  0  0  0  0  0
   -0.3984    0.0709    0.0000 C   0  0  0  0  0  0  0  0  0  0  0  0
   -0.6284    1.5229    0.0000 C   0  0  0  0  0  0  0  0  0  0  0  0
   -1.4534    1.5229    0.0000 C   0  0  0  0  0  0  0  0  0  0  0  0
   -1.8659    2.2374    0.0000 O   0  0  0  0  0  0  0  0  0  0  0  0
   -1.8659    0.8085    0.0000 N   0  0  0  0  0  0  0  0  0  0  0  0
   -1.4534    0.0940    0.0000 C   0  0  0  0  0  0  0  0  0  0  0  0
   -1.8659   -0.6205    0.0000 C   0  0  0  0  0  0  0  0  0  0  0  0
   -2.6909   -0.6205    0.0000 C   0  0  0  0  0  0  0  0  0  0  0  0
   -3.1034   -1.3349    0.0000 O   0  0  0  0  0  0  0  0  0  0  0  0
   -3.1034    0.0940    0.0000 C   0  0  0  0  0  0  0  0  0  0  0  0
   -2.6909    0.8085    0.0000 C   0  0  0  0  0  0  0  0  0  0  0  0
   -0.1435    2.1904    0.0000 S   0  0  0  0  0  0  0  0  0  0  0  0
    0.6411    1.9354    0.0000 C   0  0  0  0  0  0  0  0  0  0  0  0
    1.3556    2.3479    0.0000 N   0  0  0  0  0  0  0  0  0  0  0  0
    1.3556    3.1729    0.0000 C   0  0  0  0  0  0  0  0  0  0  0  0
    2.0701    3.5854    0.0000 C   0  0  0  0  0  0  0  0  0  0  0  0
    2.0701    4.4104    0.0000 C   0  0  0  0  0  0  0  0  0  0  0  0
    2.0701    5.2354    0.0000 F   0  0  0  0  0  0  0  0  0  0  0  0
    2.8951    4.4104    0.0000 F   0  0  0  0  0  0  0  0  0  0  0  0
    1.2451    4.4104    0.0000 F   0  0  0  0  0  0  0  0  0  0  0  0
    2.0701    1.9354    0.0000 C   0  0  0  0  0  0  0  0  0  0  0  0
    2.7845    2.3479    0.0000 O   0  0  0  0  0  0  0  0  0  0  0  0
  1  2  1  0  0  0  0
  2  3  1  0  0  0  0
  3  4  4  0  0  0  0
  4  5  2  0  0  0  0
  4  6  4  0  0  0  0
  6  7  4  0  0  0  0
  7  8  1  0  0  0  0
  7  9  4  0  0  0  0
  9 10  1  0  0  0  0
 10 11  2  0  0  0  0
 10 12  1  0  0  0  0
 12 13  1  0  0  0  0
 13 14  1  0  0  0  0
 14 15  1  0  0  0  0
 15 16  1  0  0  0  0
 15 17  1  0  0  0  0
 17 18  1  0  0  0  0
 12 18  1  0  0  0  0
  9 19  4  0  0  0  0
 19 20  4  0  0  0  0
  6 20  4  0  0  0  0
 20 21  4  0  0  0  0
 21 22  1  0  0  0  0
 22 23  1  0  0  0  0
 23 24  1  0  0  0  0
 24 25  1  0  0  0  0
 24 26  1  0  0  0  0
 24 27  1  0  0  0  0
 21 28  4  0  0  0  0
  3 28  4  0  0  0  0
 28 29  2  0  0  0  0
M  END
>  <CdId>
512

>  <Mol Weight>
433.45

>  <Formula>
C18H22F3N3O4S

>  <Molecule ChEMBL ID>
CHEMBL4522981

>  <Molecule Max Phase>
None

>  <Molecular Weight>
433.45

>  <#RO5 Violations>
0

>  <AlogP>
2.1

>  <Compound Key>
8; BAY-545

>  <Standard Type>
IC50

>  <Standard Relation>
'>'

>  <Standard Value>
20000.0

>  <Standard Units>
nM

$$$$

  Mrv2114 03112311372D          

 24 26  0  0  0  0            999 V2000
   -0.9851   -3.2777    0.0000 C   0  0  0  0  0  0  0  0  0  0  0  0
   -0.1781   -3.1062    0.0000 N   0  0  0  0  0  0  0  0  0  0  0  0
    0.3739   -3.7192    0.0000 C   0  0  0  0  0  0  0  0  0  0  0  0
    0.0768   -2.3215    0.0000 C   0  0  0  0  0  0  0  0  0  0  0  0
   -0.4752   -1.7084    0.0000 O   0  0  0  0  0  0  0  0  0  0  0  0
    0.8838   -2.1500    0.0000 C   0  0  0  0  0  0  0  0  0  0  0  0
    1.1387   -1.3654    0.0000 N   0  0  0  0  0  0  0  0  0  0  0  0
    0.6538   -0.6979    0.0000 C   0  0  0  0  0  0  0  0  0  0  0  0
    1.1387   -0.0305    0.0000 C   0  0  0  0  0  0  0  0  0  0  0  0
    1.9233   -0.2854    0.0000 C   0  0  0  0  0  0  0  0  0  0  0  0
    2.6378    0.1271    0.0000 N   0  0  0  0  0  0  0  0  0  0  0  0
    3.3523   -0.2854    0.0000 C   0  0  0  0  0  0  0  0  0  0  0  0
    3.3523   -1.1104    0.0000 C   0  0  0  0  0  0  0  0  0  0  0  0
    4.0668   -1.5229    0.0000 C   0  0  0  0  0  0  0  0  0  0  0  0
    4.8204   -1.1874    0.0000 C   0  0  0  0  0  0  0  0  0  0  0  0
    5.3725   -1.8005    0.0000 C   0  0  0  0  0  0  0  0  0  0  0  0
    4.9600   -2.5150    0.0000 C   0  0  0  0  0  0  0  0  0  0  0  0
    5.2955   -3.2686    0.0000 C   0  0  0  0  0  0  0  0  0  0  0  0
    5.6311   -4.0223    0.0000 F   0  0  0  0  0  0  0  0  0  0  0  0
    4.5418   -3.6042    0.0000 F   0  0  0  0  0  0  0  0  0  0  0  0
    6.0492   -2.9331    0.0000 F   0  0  0  0  0  0  0  0  0  0  0  0
    4.1530   -2.3434    0.0000 S   0  0  0  0  0  0  0  0  0  0  0  0
    2.6378   -1.5229    0.0000 C   0  0  0  0  0  0  0  0  0  0  0  0
    1.9233   -1.1104    0.0000 C   0  0  0  0  0  0  0  0  0  0  0  0
  1  2  1  0  0  0  0
  2  3  1  0  0  0  0
  2  4  1  0  0  0  0
  4  5  2  0  0  0  0
  4  6  1  0  0  0  0
  6  7  1  0  0  0  0
  7  8  4  0  0  0  0
  8  9  4  0  0  0  0
  9 10  4  0  0  0  0
 10 11  4  0  0  0  0
 11 12  4  0  0  0  0
 12 13  4  0  0  0  0
 13 14  1  0  0  0  0
 14 15  4  0  0  0  0
 15 16  4  0  0  0  0
 16 17  4  0  0  0  0
 17 18  1  0  0  0  0
 18 19  1  0  0  0  0
 18 20  1  0  0  0  0
 18 21  1  0  0  0  0
 17 22  4  0  0  0  0
 14 22  4  0  0  0  0
 13 23  4  0  0  0  0
 23 24  4  0  0  0  0
 10 24  4  0  0  0  0
  7 24  4  0  0  0  0
M  END
>  <CdId>
513

>  <Mol Weight>
353.36

>  <Formula>
C16H14F3N3OS

>  <Molecule ChEMBL ID>
CHEMBL4531750

>  <Molecule Max Phase>
None

>  <Molecular Weight>
353.37

>  <#RO5 Violations>
0

>  <AlogP>
3.87

>  <Compound Key>
30

>  <Standard Type>
IC50

>  <Standard Relation>
'>'

>  <Standard Value>
10000.0

>  <Standard Units>
nM

$$$$

  Mrv2114 03112311372D          

 18 20  0  0  0  0            999 V2000
    0.7145   -2.8875    0.0000 O   0  0  0  0  0  0  0  0  0  0  0  0
    0.0000   -2.4750    0.0000 C   0  0  0  0  0  0  0  0  0  0  0  0
    0.0000   -1.6500    0.0000 N   0  0  0  0  0  0  0  0  0  0  0  0
    0.7145   -1.2375    0.0000 C   0  0  0  0  0  0  0  0  0  0  0  0
    0.7145   -0.4125    0.0000 C   0  0  0  0  0  0  0  0  0  0  0  0
    1.4289    0.0000    0.0000 C   0  0  0  0  0  0  0  0  0  0  0  0
    2.1434   -0.4125    0.0000 C   0  0  0  0  0  0  0  0  0  0  0  0
    2.8579    0.0000    0.0000 C   0  0  0  0  0  0  0  0  0  0  0  0
    3.5724   -0.4125    0.0000 C   0  0  0  0  0  0  0  0  0  0  0  0
    3.5724   -1.2375    0.0000 C   0  0  0  0  0  0  0  0  0  0  0  0
    2.8579   -1.6500    0.0000 C   0  0  0  0  0  0  0  0  0  0  0  0
    2.1434   -1.2375    0.0000 C   0  0  0  0  0  0  0  0  0  0  0  0
    1.4289   -1.6500    0.0000 N   0  0  0  0  0  0  0  0  0  0  0  0
   -0.7145   -2.8875    0.0000 C   0  0  0  0  0  0  0  0  0  0  0  0
   -0.8007   -3.7080    0.0000 C   0  0  0  0  0  0  0  0  0  0  0  0
   -1.6077   -3.8795    0.0000 C   0  0  0  0  0  0  0  0  0  0  0  0
   -2.0202   -3.1650    0.0000 N   0  0  0  0  0  0  0  0  0  0  0  0
   -1.4681   -2.5519    0.0000 N   0  0  0  0  0  0  0  0  0  0  0  0
  1  2  2  0  0  0  0
  2  3  1  0  0  0  0
  3  4  1  0  0  0  0
  4  5  4  0  0  0  0
  5  6  4  0  0  0  0
  6  7  4  0  0  0  0
  7  8  4  0  0  0  0
  8  9  4  0  0  0  0
  9 10  4  0  0  0  0
 10 11  4  0  0  0  0
 11 12  4  0  0  0  0
  7 12  4  0  0  0  0
 12 13  4  0  0  0  0
  4 13  4  0  0  0  0
  2 14  1  0  0  0  0
 14 15  4  0  0  0  0
 15 16  4  0  0  0  0
 16 17  4  0  0  0  0
 17 18  4  0  0  0  0
 14 18  4  0  0  0  0
M  STY  1   1 DAT
M  SAL   1  1  17
M  SDT   1 MRV_IMPLICIT_H                                        
M  SDD   1     0.0000    0.0000    DR    ALL  0       0  
M  SED   1 IMPL_H1
M  END
>  <CdId>
514

>  <Mol Weight>
238.25

>  <Formula>
C13H10N4O

>  <Molecule ChEMBL ID>
CHEMBL3604140

>  <Molecule Max Phase>
None

>  <Molecular Weight>
238.25

>  <#RO5 Violations>
0

>  <AlogP>
2.21

>  <Compound Key>
3e, BLX-1873

>  <Standard Type>
IC50

$$$$

  Mrv2114 03112311372D          

 33 37  0  0  1  0            999 V2000
    0.6319   -2.9251    0.0000 C   0  0  0  0  0  0  0  0  0  0  0  0
    1.4440   -2.7799    0.0000 C   0  0  0  0  0  0  0  0  0  0  0  0
    2.2561   -2.6347    0.0000 C   0  0  0  0  0  0  0  0  0  0  0  0
    3.0683   -2.4895    0.0000 C   0  0  2  0  0  0  0  0  0  0  0  0
    3.1278   -3.3123    0.0000 O   0  0  0  0  0  0  0  0  0  0  0  0
    2.8390   -1.6970    0.0000 C   0  0  0  0  0  0  0  0  0  0  0  0
    3.5218   -1.2340    0.0000 C   0  0  0  0  0  0  0  0  0  0  0  0
    4.1731   -1.7404    0.0000 C   0  0  1  0  0  0  0  0  0  0  0  0
    4.9853   -1.5952    0.0000 C   0  0  2  0  0  0  0  0  0  0  0  0
    5.2655   -0.8192    0.0000 C   0  0  0  0  0  0  0  0  0  0  0  0
    6.0777   -0.6740    0.0000 C   0  0  0  0  0  0  0  0  0  0  0  0
    6.6095   -1.3047    0.0000 C   0  0  0  0  0  0  0  0  0  0  0  0
    7.4216   -1.1595    0.0000 C   0  0  0  0  0  0  0  0  0  0  0  0
    7.9534   -1.7902    0.0000 C   0  0  0  0  0  0  0  0  0  0  0  0
    8.7655   -1.6450    0.0000 O   0  0  0  0  0  0  0  0  0  0  0  0
    7.6731   -2.5662    0.0000 C   0  0  0  0  0  0  0  0  0  0  0  0
    6.8610   -2.7114    0.0000 C   0  0  0  0  0  0  0  0  0  0  0  0
    6.3292   -2.0807    0.0000 C   0  0  1  0  0  0  0  0  0  0  0  0
    6.0489   -2.8566    0.0000 C   0  0  0  0  0  0  0  0  0  0  0  0
    5.5171   -2.2259    0.0000 C   0  0  1  0  0  0  0  0  0  0  0  0
    5.2368   -3.0018    0.0000 C   0  0  1  0  0  0  0  0  0  0  0  0
    5.7686   -3.6325    0.0000 C   0  0  0  0  0  0  0  0  0  0  0  0
    6.5807   -3.4873    0.0000 C   0  0  0  0  0  0  0  0  0  0  0  0
    7.1125   -4.1180    0.0000 C   0  0  0  0  0  0  0  0  0  0  0  0
    6.8322   -4.8939    0.0000 C   0  0  0  0  0  0  0  0  0  0  0  0
    7.3640   -5.5246    0.0000 N   0  0  0  0  0  0  0  0  0  0  0  0
    7.0838   -6.3006    0.0000 C   0  0  0  0  0  0  0  0  0  0  0  0
    8.1762   -5.3794    0.0000 C   0  0  0  0  0  0  0  0  0  0  0  0
    6.0201   -5.0391    0.0000 C   0  0  0  0  0  0  0  0  0  0  0  0
    5.4883   -4.4084    0.0000 C   0  0  0  0  0  0  0  0  0  0  0  0
    4.4247   -3.1470    0.0000 C   0  0  0  0  0  0  0  0  0  0  0  0
    3.8928   -2.5163    0.0000 C   0  0  2  0  0  0  0  0  0  0  0  0
    3.5330   -3.2587    0.0000 C   0  0  0  0  0  0  0  0  0  0  0  0
  1  2  1  0  0  0  0
  2  3  3  0  0  0  0
  4  3  1  6  0  0  0
  4  5  1  1  0  0  0
  4  6  1  0  0  0  0
  6  7  1  0  0  0  0
  8  7  1  1  0  0  0
  9  8  1  0  0  0  0
  9 10  1  6  0  0  0
 10 11  1  0  0  0  0
 11 12  1  0  0  0  0
 12 13  2  0  0  0  0
 13 14  1  0  0  0  0
 14 15  2  0  0  0  0
 14 16  1  0  0  0  0
 16 17  1  0  0  0  0
 18 17  1  0  0  0  0
 18 12  1  0  0  0  0
 18 19  1  1  0  0  0
 20 18  1  1  0  0  0
 20  9  1  0  0  0  0
 20 21  1  0  0  0  0
 21 22  1  1  0  0  0
 22 23  4  0  0  0  0
 23 24  4  0  0  0  0
 24 25  4  0  0  0  0
 25 26  1  0  0  0  0
 26 27  1  0  0  0  0
 26 28  1  0  0  0  0
 25 29  4  0  0  0  0
 29 30  4  0  0  0  0
 22 30  4  0  0  0  0
 21 31  1  0  0  0  0
 32 31  1  0  0  0  0
  8 32  1  0  0  0  0
 32  4  1  0  0  0  0
 32 33  1  1  0  0  0
M  END
>  <CdId>
515

>  <Mol Weight>
445.647

>  <Formula>
C30H39NO2

>  <Molecule ChEMBL ID>
CHEMBL4571052

>  <Molecule Max Phase>
None

>  <Molecular Weight>
445.65

>  <#RO5 Violations>
1

>  <AlogP>
5.73

>  <Compound Key>
15; OP-3633

>  <Standard Type>
IC50

>  <Standard Relation>
'='

>  <Standard Value>
8000.0

>  <Standard Units>
nM

$$$$

  Mrv2114 03112311372D          

 24 26  0  0  0  0            999 V2000
    2.8579    0.0000    0.0000 C   0  0  0  0  0  0  0  0  0  0  0  0
    3.5724    0.4125    0.0000 C   0  0  0  0  0  0  0  0  0  0  0  0
    4.2868    0.0000    0.0000 C   0  0  0  0  0  0  0  0  0  0  0  0
    5.0013    0.4125    0.0000 C   0  0  0  0  0  0  0  0  0  0  0  0
    5.7158    0.0000    0.0000 N   0  0  0  0  0  0  0  0  0  0  0  0
    6.4302    0.4125    0.0000 C   0  0  0  0  0  0  0  0  0  0  0  0
    6.4302    1.2375    0.0000 N   0  0  0  0  0  0  0  0  0  0  0  0
    7.1447    1.6500    0.0000 C   0  0  0  0  0  0  0  0  0  0  0  0
    7.1447    2.4750    0.0000 N   0  0  0  0  0  0  0  0  0  0  0  0
    7.8592    1.2375    0.0000 N   0  0  0  0  0  0  0  0  0  0  0  0
    7.8592    0.4125    0.0000 C   0  0  0  0  0  0  0  0  0  0  0  0
    8.5737    0.0000    0.0000 C   0  0  0  0  0  0  0  0  0  0  0  0
    8.5737   -0.8250    0.0000 C   0  0  0  0  0  0  0  0  0  0  0  0
    7.8592   -1.2375    0.0000 C   0  0  0  0  0  0  0  0  0  0  0  0
    7.1447   -0.8250    0.0000 C   0  0  0  0  0  0  0  0  0  0  0  0
    6.4302   -1.2375    0.0000 O   0  0  0  0  0  0  0  0  0  0  0  0
    6.4302   -2.0625    0.0000 C   0  0  0  0  0  0  0  0  0  0  0  0
    7.1447   -2.4750    0.0000 C   0  0  0  0  0  0  0  0  0  0  0  0
    7.8592   -2.0625    0.0000 C   0  0  0  0  0  0  0  0  0  0  0  0
    8.5737   -2.4750    0.0000 C   0  0  0  0  0  0  0  0  0  0  0  0
    8.5737   -3.3000    0.0000 C   0  0  0  0  0  0  0  0  0  0  0  0
    7.8592   -3.7125    0.0000 C   0  0  0  0  0  0  0  0  0  0  0  0
    7.1447   -3.3000    0.0000 C   0  0  0  0  0  0  0  0  0  0  0  0
    7.1447    0.0000    0.0000 C   0  0  0  0  0  0  0  0  0  0  0  0
  1  2  1  0  0  0  0
  2  3  1  0  0  0  0
  3  4  1  0  0  0  0
  4  5  1  0  0  0  0
  5  6  1  0  0  0  0
  6  7  4  0  0  0  0
  7  8  4  0  0  0  0
  8  9  1  0  0  0  0
  8 10  4  0  0  0  0
 10 11  4  0  0  0  0
 11 12  4  0  0  0  0
 12 13  4  0  0  0  0
 13 14  4  0  0  0  0
 14 15  4  0  0  0  0
 15 16  1  0  0  0  0
 16 17  1  0  0  0  0
 17 18  1  0  0  0  0
 18 19  4  0  0  0  0
 19 20  4  0  0  0  0
 20 21  4  0  0  0  0
 21 22  4  0  0  0  0
 22 23  4  0  0  0  0
 18 23  4  0  0  0  0
 15 24  4  0  0  0  0
  6 24  4  0  0  0  0
 11 24  4  0  0  0  0
M  END
>  <CdId>
516

>  <Mol Weight>
322.412

>  <Formula>
C19H22N4O

>  <Molecule ChEMBL ID>
CHEMBL4209700

>  <Molecule Max Phase>
None

>  <Molecular Weight>
322.41

>  <#RO5 Violations>
0

>  <AlogP>
4

>  <Compound Key>
36

>  <Standard Type>
IC50

>  <Standard Relation>
'>'

>  <Standard Value>
10000.0

>  <Standard Units>
nM

$$$$

  Mrv2114 03112311372D          

 29 32  0  0  1  0            999 V2000
    0.7145   -1.2375    0.0000 C   0  0  0  0  0  0  0  0  0  0  0  0
    0.7145   -0.4125    0.0000 C   0  0  2  0  0  0  0  0  0  0  0  0
    0.0000    0.0000    0.0000 C   0  0  0  0  0  0  0  0  0  0  0  0
   -0.7846   -0.2549    0.0000 N   0  0  0  0  0  0  0  0  0  0  0  0
   -1.2695    0.4125    0.0000 N   0  0  0  0  0  0  0  0  0  0  0  0
   -0.7846    1.0799    0.0000 N   0  0  0  0  0  0  0  0  0  0  0  0
   -1.0396    1.8646    0.0000 C   0  0  0  0  0  0  0  0  0  0  0  0
   -1.8465    2.0361    0.0000 C   0  0  0  0  0  0  0  0  0  0  0  0
   -2.1015    2.8207    0.0000 N   0  0  0  0  0  0  0  0  0  0  0  0
   -1.5494    3.4338    0.0000 C   0  0  0  0  0  0  0  0  0  0  0  0
   -0.7425    3.2623    0.0000 C   0  0  0  0  0  0  0  0  0  0  0  0
   -0.4875    2.4777    0.0000 N   0  0  0  0  0  0  0  0  0  0  0  0
    0.0000    0.8250    0.0000 C   0  0  0  0  0  0  0  0  0  0  0  0
    0.7145    1.2375    0.0000 C   0  0  0  0  0  0  0  0  0  0  0  0
    1.4289    0.8250    0.0000 C   0  0  0  0  0  0  0  0  0  0  0  0
    1.4289    0.0000    0.0000 N   0  0  0  0  0  0  0  0  0  0  0  0
    2.1434   -0.4125    0.0000 C   0  0  0  0  0  0  0  0  0  0  0  0
    2.1434   -1.2375    0.0000 O   0  0  0  0  0  0  0  0  0  0  0  0
    2.8579    0.0000    0.0000 C   0  0  0  0  0  0  0  0  0  0  0  0
    2.8579    0.8250    0.0000 C   0  0  0  0  0  0  0  0  0  0  0  0
    3.5724    1.2375    0.0000 C   0  0  0  0  0  0  0  0  0  0  0  0
    4.2868    0.8250    0.0000 C   0  0  0  0  0  0  0  0  0  0  0  0
    4.2868    0.0000    0.0000 C   0  0  0  0  0  0  0  0  0  0  0  0
    5.0013   -0.4125    0.0000 C   0  0  0  0  0  0  0  0  0  0  0  0
    5.7158   -0.8250    0.0000 F   0  0  0  0  0  0  0  0  0  0  0  0
    4.5888   -1.1270    0.0000 F   0  0  0  0  0  0  0  0  0  0  0  0
    5.4138    0.3020    0.0000 F   0  0  0  0  0  0  0  0  0  0  0  0
    3.5724   -0.4125    0.0000 C   0  0  0  0  0  0  0  0  0  0  0  0
    3.5724   -1.2375    0.0000 Cl  0  0  0  0  0  0  0  0  0  0  0  0
  2  1  1  6  0  0  0
  2  3  1  0  0  0  0
  3  4  4  0  0  0  0
  4  5  4  0  0  0  0
  5  6  4  0  0  0  0
  6  7  1  0  0  0  0
  7  8  4  0  0  0  0
  8  9  4  0  0  0  0
  9 10  4  0  0  0  0
 10 11  4  0  0  0  0
 11 12  4  0  0  0  0
  7 12  4  0  0  0  0
  6 13  4  0  0  0  0
  3 13  4  0  0  0  0
 13 14  1  0  0  0  0
 14 15  1  0  0  0  0
 15 16  1  0  0  0  0
  2 16  1  0  0  0  0
 16 17  1  0  0  0  0
 17 18  2  0  0  0  0
 17 19  1  0  0  0  0
 19 20  4  0  0  0  0
 20 21  4  0  0  0  0
 21 22  4  0  0  0  0
 22 23  4  0  0  0  0
 23 24  1  0  0  0  0
 24 25  1  0  0  0  0
 24 26  1  0  0  0  0
 24 27  1  0  0  0  0
 23 28  4  0  0  0  0
 19 28  4  0  0  0  0
 28 29  1  0  0  0  0
M  END
>  <CdId>
517

>  <Mol Weight>
422.8

>  <Formula>
C18H14ClF3N6O

>  <Molecule ChEMBL ID>
CHEMBL4074304

>  <Molecule Max Phase>
None

>  <Molecular Weight>
422.8

>  <#RO5 Violations>
0

>  <AlogP>
3.49

>  <Compound Key>
11

>  <Standard Type>
IC50

>  <Standard Relation>
'>'

>  <Standard Value>
10000.0

>  <Standard Units>
nM

$$$$

  Mrv2114 03112311372D          

 34 38  0  0  0  0            999 V2000
    0.0000    0.0000    0.0000 Cl  0  0  0  0  0  0  0  0  0  0  0  0
    3.5357    2.6492    0.0000 N   0  0  0  0  0  0  0  0  0  0  0  0
    3.1232    1.9348    0.0000 C   0  0  0  0  0  0  0  0  0  0  0  0
    2.2982    1.9348    0.0000 N   0  0  0  0  0  0  0  0  0  0  0  0
    1.8857    1.2203    0.0000 C   0  0  0  0  0  0  0  0  0  0  0  0
    2.2982    0.5058    0.0000 C   0  0  0  0  0  0  0  0  0  0  0  0
    3.1232    0.5058    0.0000 C   0  0  0  0  0  0  0  0  0  0  0  0
    3.5357    1.2203    0.0000 C   0  0  0  0  0  0  0  0  0  0  0  0
    4.3607    1.2203    0.0000 C   0  0  0  0  0  0  0  0  0  0  0  0
    4.8456    1.8877    0.0000 N   0  0  0  0  0  0  0  0  0  0  0  0
    5.6303    1.6328    0.0000 C   0  0  0  0  0  0  0  0  0  0  0  0
    6.3447    2.0453    0.0000 C   0  0  0  0  0  0  0  0  0  0  0  0
    7.0592    1.6328    0.0000 C   0  0  0  0  0  0  0  0  0  0  0  0
    7.0592    0.8078    0.0000 C   0  0  0  0  0  0  0  0  0  0  0  0
    7.7737    0.3953    0.0000 C   0  0  0  0  0  0  0  0  0  0  0  0
    8.4881    0.8078    0.0000 C   0  0  0  0  0  0  0  0  0  0  0  0
    9.2026    0.3953    0.0000 C   0  0  0  0  0  0  0  0  0  0  0  0
    9.2026   -0.4297    0.0000 C   0  0  0  0  0  0  0  0  0  0  0  0
    8.4881   -0.8422    0.0000 N   0  0  0  0  0  0  0  0  0  0  0  0
    7.7737   -0.4297    0.0000 C   0  0  0  0  0  0  0  0  0  0  0  0
    6.3447    0.3953    0.0000 N   0  0  0  0  0  0  0  0  0  0  0  0
    5.6303    0.8078    0.0000 C   0  0  0  0  0  0  0  0  0  0  0  0
    4.8456    0.5529    0.0000 N   0  0  0  0  0  0  0  0  0  0  0  0
    4.5907   -0.2318    0.0000 C   0  0  0  0  0  0  0  0  0  0  0  0
    5.1427   -0.8449    0.0000 C   0  0  0  0  0  0  0  0  0  0  0  0
    4.8878   -1.6295    0.0000 C   0  0  0  0  0  0  0  0  0  0  0  0
    4.0808   -1.8010    0.0000 C   0  0  0  0  0  0  0  0  0  0  0  0
    3.8259   -2.5856    0.0000 C   0  0  0  0  0  0  0  0  0  0  0  0
    3.0413   -2.3307    0.0000 N   0  0  0  0  0  0  0  0  0  0  0  0
    4.6105   -2.8406    0.0000 C   0  0  0  0  0  0  0  0  0  0  0  0
    4.3556   -3.6252    0.0000 C   0  0  0  0  0  0  0  0  0  0  0  0
    3.5709   -3.3702    0.0000 C   0  0  0  0  0  0  0  0  0  0  0  0
    3.5288   -1.1879    0.0000 C   0  0  0  0  0  0  0  0  0  0  0  0
    3.7837   -0.4033    0.0000 C   0  0  0  0  0  0  0  0  0  0  0  0
  2  3  1  0  0  0  0
  3  4  4  0  0  0  0
  4  5  4  0  0  0  0
  5  6  4  0  0  0  0
  6  7  4  0  0  0  0
  7  8  4  0  0  0  0
  3  8  4  0  0  0  0
  8  9  1  0  0  0  0
  9 10  4  0  0  0  0
 10 11  4  0  0  0  0
 11 12  4  0  0  0  0
 12 13  4  0  0  0  0
 13 14  4  0  0  0  0
 14 15  1  0  0  0  0
 15 16  4  0  0  0  0
 16 17  4  0  0  0  0
 17 18  4  0  0  0  0
 18 19  4  0  0  0  0
 19 20  4  0  0  0  0
 15 20  4  0  0  0  0
 14 21  4  0  0  0  0
 21 22  4  0  0  0  0
 11 22  4  0  0  0  0
 22 23  4  0  0  0  0
  9 23  4  0  0  0  0
 23 24  1  0  0  0  0
 24 25  4  0  0  0  0
 25 26  4  0  0  0  0
 26 27  4  0  0  0  0
 27 28  1  0  0  0  0
 28 29  1  0  0  0  0
 28 30  1  0  0  0  0
 30 31  1  0  0  0  0
 31 32  1  0  0  0  0
 28 32  1  0  0  0  0
 27 33  4  0  0  0  0
 33 34  4  0  0  0  0
 24 34  4  0  0  0  0
M  END
>  <CdId>
518

>  <Mol Weight>
469.98

>  <Formula>
C26H24ClN7

>  <Molecule ChEMBL ID>
CHEMBL4544109

>  <Molecule Max Phase>
None

>  <Molecular Weight>
469.98

>  <#RO5 Violations>
0

>  <AlogP>
4.46

>  <Compound Key>
21c

>  <Standard Type>
IC50

>  <Standard Relation>
'>'

>  <Standard Value>
20000.0

>  <Standard Units>
nM

$$$$

  Mrv2114 03112311372D          

 32 35  0  0  0  0            999 V2000
    5.4957    0.6979    0.0000 C   0  0  0  0  0  0  0  0  0  0  0  0
    4.7812    1.1104    0.0000 C   0  0  0  0  0  0  0  0  0  0  0  0
    4.7812    1.9354    0.0000 C   0  0  0  0  0  0  0  0  0  0  0  0
    4.0668    2.3479    0.0000 C   0  0  0  0  0  0  0  0  0  0  0  0
    4.0668    3.1729    0.0000 C   0  0  0  0  0  0  0  0  0  0  0  0
    3.3523    3.5854    0.0000 C   0  0  0  0  0  0  0  0  0  0  0  0
    3.3523    4.4104    0.0000 C   0  0  0  0  0  0  0  0  0  0  0  0
    4.0668    4.8229    0.0000 C   0  0  0  0  0  0  0  0  0  0  0  0
    4.0668    5.6479    0.0000 C   0  0  0  0  0  0  0  0  0  0  0  0
    4.7812    6.0604    0.0000 C   0  0  0  0  0  0  0  0  0  0  0  0
    4.7812    6.8854    0.0000 C   0  0  0  0  0  0  0  0  0  0  0  0
    5.4957    7.2979    0.0000 O   0  0  0  0  0  0  0  0  0  0  0  0
    4.0668    7.2979    0.0000 O   0  0  0  0  0  0  0  0  0  0  0  0
    4.7812    4.4104    0.0000 C   0  0  0  0  0  0  0  0  0  0  0  0
    4.7812    3.5854    0.0000 C   0  0  0  0  0  0  0  0  0  0  0  0
    3.3523    1.9354    0.0000 C   0  0  0  0  0  0  0  0  0  0  0  0
    3.3523    1.1104    0.0000 C   0  0  0  0  0  0  0  0  0  0  0  0
    2.6378    0.6979    0.0000 C   0  0  0  0  0  0  0  0  0  0  0  0
    1.9233    1.1104    0.0000 C   0  0  0  0  0  0  0  0  0  0  0  0
    1.1387    0.8555    0.0000 N   0  0  0  0  0  0  0  0  0  0  0  0
    0.6538    1.5229    0.0000 N   0  0  0  0  0  0  0  0  0  0  0  0
    1.1387    2.1904    0.0000 C   0  0  0  0  0  0  0  0  0  0  0  0
    1.9233    1.9354    0.0000 C   0  0  0  0  0  0  0  0  0  0  0  0
    2.6378    2.3479    0.0000 C   0  0  0  0  0  0  0  0  0  0  0  0
    5.4957    2.3479    0.0000 C   0  0  0  0  0  0  0  0  0  0  0  0
    5.4957    3.1729    0.0000 C   0  0  0  0  0  0  0  0  0  0  0  0
    6.2102    3.5854    0.0000 C   0  0  0  0  0  0  0  0  0  0  0  0
    6.9246    3.1729    0.0000 C   0  0  0  0  0  0  0  0  0  0  0  0
    7.6391    3.5854    0.0000 F   0  0  0  0  0  0  0  0  0  0  0  0
    6.9246    2.3479    0.0000 C   0  0  0  0  0  0  0  0  0  0  0  0
    6.2102    1.9354    0.0000 C   0  0  0  0  0  0  0  0  0  0  0  0
    6.2102    1.1104    0.0000 Cl  0  0  0  0  0  0  0  0  0  0  0  0
  1  2  1  0  0  0  0
  2  3  1  0  0  0  0
  3  4  2  0  0  0  0
  4  5  1  0  0  0  0
  5  6  4  0  0  0  0
  6  7  4  0  0  0  0
  7  8  4  0  0  0  0
  8  9  1  0  0  0  0
  9 10  2  0  0  0  0
 10 11  1  0  0  0  0
 11 12  2  0  0  0  0
 11 13  1  0  0  0  0
  8 14  4  0  0  0  0
 14 15  4  0  0  0  0
  5 15  4  0  0  0  0
  4 16  1  0  0  0  0
 16 17  4  0  0  0  0
 17 18  4  0  0  0  0
 18 19  4  0  0  0  0
 19 20  4  0  0  0  0
 20 21  4  0  0  0  0
 21 22  4  0  0  0  0
 22 23  4  0  0  0  0
 19 23  4  0  0  0  0
 23 24  4  0  0  0  0
 16 24  4  0  0  0  0
  3 25  1  0  0  0  0
 25 26  4  0  0  0  0
 26 27  4  0  0  0  0
 27 28  4  0  0  0  0
 28 29  1  0  0  0  0
 28 30  4  0  0  0  0
 30 31  4  0  0  0  0
 25 31  4  0  0  0  0
 31 32  1  0  0  0  0
M  STY  1   1 DAT
M  SAL   1  1  20
M  SDT   1 MRV_IMPLICIT_H                                        
M  SDD   1     0.0000    0.0000    DR    ALL  0       0  
M  SED   1 IMPL_H1
M  END
>  <CdId>
519

>  <Mol Weight>
446.91

>  <Formula>
C26H20ClFN2O2

>  <Molecule ChEMBL ID>
CHEMBL3581693

>  <Molecule Name>
BRILANESTRANT

>  <Molecule Max Phase>
2

>  <Molecular Weight>
446.91

>  <#RO5 Violations>
1

>  <AlogP>
6.82

>  <Compound Key>
11l, GDC-0810, ARN-810

>  <Standard Type>
IC50

>  <Standard Relation>
'<'

>  <Standard Value>
100.0

>  <Standard Units>
nM

$$$$

  Mrv2114 03112311372D          

 34 37  0  0  0  0            999 V2000
    2.1434   -3.7125    0.0000 C   0  0  0  0  0  0  0  0  0  0  0  0
    2.8579   -4.1250    0.0000 O   0  0  0  0  0  0  0  0  0  0  0  0
    2.8579   -4.9500    0.0000 C   0  0  0  0  0  0  0  0  0  0  0  0
    3.5724   -5.3625    0.0000 C   0  0  0  0  0  0  0  0  0  0  0  0
    3.5724   -6.1875    0.0000 C   0  0  0  0  0  0  0  0  0  0  0  0
    4.2868   -6.6000    0.0000 C   0  0  0  0  0  0  0  0  0  0  0  0
    5.0013   -6.1875    0.0000 C   0  0  0  0  0  0  0  0  0  0  0  0
    5.7158   -6.6000    0.0000 N   0  0  0  0  0  0  0  0  0  0  0  0
    5.7158   -7.4250    0.0000 C   0  0  0  0  0  0  0  0  0  0  0  0
    5.0013   -7.8375    0.0000 C   0  0  0  0  0  0  0  0  0  0  0  0
    5.0013   -8.6625    0.0000 C   0  0  0  0  0  0  0  0  0  0  0  0
    5.7158   -9.0750    0.0000 C   0  0  0  0  0  0  0  0  0  0  0  0
    5.7158   -9.9000    0.0000 C   0  0  0  0  0  0  0  0  0  0  0  0
    5.0013  -10.3125    0.0000 C   0  0  0  0  0  0  0  0  0  0  0  0
    5.0013  -11.1375    0.0000 N   0  0  0  0  0  0  0  0  0  0  0  0
    5.7158  -11.5500    0.0000 C   0  0  0  0  0  0  0  0  0  0  0  0
    5.7158  -12.3750    0.0000 C   0  0  0  0  0  0  0  0  0  0  0  0
    5.0013  -12.7875    0.0000 N   0  0  0  0  0  0  0  0  0  0  0  0
    5.0013  -13.6125    0.0000 C   0  0  0  0  0  0  0  0  0  0  0  0
    4.2868  -14.0250    0.0000 C   0  0  0  0  0  0  0  0  0  0  0  0
    5.7158  -14.0250    0.0000 C   0  0  0  0  0  0  0  0  0  0  0  0
    4.2868  -12.3750    0.0000 C   0  0  0  0  0  0  0  0  0  0  0  0
    4.2868  -11.5500    0.0000 C   0  0  0  0  0  0  0  0  0  0  0  0
    4.2868   -9.9000    0.0000 C   0  0  0  0  0  0  0  0  0  0  0  0
    4.2868   -9.0750    0.0000 C   0  0  0  0  0  0  0  0  0  0  0  0
    4.2868   -7.4250    0.0000 C   0  0  0  0  0  0  0  0  0  0  0  0
    3.5724   -7.8375    0.0000 C   0  0  0  0  0  0  0  0  0  0  0  0
    2.8579   -6.6000    0.0000 C   0  0  0  0  0  0  0  0  0  0  0  0
    2.1434   -6.1875    0.0000 C   0  0  0  0  0  0  0  0  0  0  0  0
    1.4289   -6.6000    0.0000 F   0  0  0  0  0  0  0  0  0  0  0  0
    2.1434   -5.3625    0.0000 C   0  0  0  0  0  0  0  0  0  0  0  0
    1.4289   -4.9500    0.0000 C   0  0  0  0  0  0  0  0  0  0  0  0
    0.7145   -5.3625    0.0000 N   0  0  0  0  0  0  0  0  0  0  0  0
    1.4289   -4.1250    0.0000 O   0  0  0  0  0  0  0  0  0  0  0  0
  1  2  1  0  0  0  0
  2  3  1  0  0  0  0
  3  4  4  0  0  0  0
  4  5  4  0  0  0  0
  5  6  1  0  0  0  0
  6  7  4  0  0  0  0
  7  8  4  0  0  0  0
  8  9  4  0  0  0  0
  9 10  4  0  0  0  0
 10 11  1  0  0  0  0
 11 12  4  0  0  0  0
 12 13  4  0  0  0  0
 13 14  4  0  0  0  0
 14 15  1  0  0  0  0
 15 16  1  0  0  0  0
 16 17  1  0  0  0  0
 17 18  1  0  0  0  0
 18 19  1  0  0  0  0
 19 20  1  0  0  0  0
 19 21  1  0  0  0  0
 18 22  1  0  0  0  0
 22 23  1  0  0  0  0
 15 23  1  0  0  0  0
 14 24  4  0  0  0  0
 24 25  4  0  0  0  0
 11 25  4  0  0  0  0
 10 26  4  0  0  0  0
  6 26  4  0  0  0  0
 26 27  1  0  0  0  0
  5 28  4  0  0  0  0
 28 29  4  0  0  0  0
 29 30  1  0  0  0  0
 29 31  4  0  0  0  0
  3 31  4  0  0  0  0
 31 32  1  0  0  0  0
 32 33  1  0  0  0  0
 32 34  2  0  0  0  0
M  END
>  <CdId>
520

>  <Mol Weight>
462.569

>  <Formula>
C27H31FN4O2

>  <Molecule ChEMBL ID>
CHEMBL4548795

>  <Molecule Max Phase>
None

>  <Molecular Weight>
462.57

>  <#RO5 Violations>
0

>  <AlogP>
4.5

>  <Compound Key>
26b

>  <Standard Type>
IC50

>  <Standard Relation>
'>'

>  <Standard Value>
30000.0

>  <Standard Units>
nM

$$$$

  Mrv2114 03112311372D          

 27 29  0  0  0  0            999 V2000
   -1.0778   -2.7856    0.0000 C   0  0  0  0  0  0  0  0  0  0  0  0
   -0.9063   -3.5926    0.0000 C   0  0  0  0  0  0  0  0  0  0  0  0
   -0.1526   -3.9282    0.0000 C   0  0  0  0  0  0  0  0  0  0  0  0
    0.5619   -3.5157    0.0000 C   0  0  0  0  0  0  0  0  0  0  0  0
    1.2763   -3.9282    0.0000 C   0  0  0  0  0  0  0  0  0  0  0  0
    1.9908   -3.5157    0.0000 C   0  0  0  0  0  0  0  0  0  0  0  0
    1.9908   -2.6907    0.0000 O   0  0  0  0  0  0  0  0  0  0  0  0
    2.7053   -3.9282    0.0000 N   0  0  0  0  0  0  0  0  0  0  0  0
    3.4197   -3.5157    0.0000 C   0  0  0  0  0  0  0  0  0  0  0  0
    3.4197   -2.6907    0.0000 C   0  0  0  0  0  0  0  0  0  0  0  0
    4.1342   -2.2782    0.0000 C   0  0  0  0  0  0  0  0  0  0  0  0
    4.8487   -2.6907    0.0000 C   0  0  0  0  0  0  0  0  0  0  0  0
    4.8487   -3.5157    0.0000 C   0  0  0  0  0  0  0  0  0  0  0  0
    4.1342   -3.9282    0.0000 C   0  0  0  0  0  0  0  0  0  0  0  0
    4.1342   -4.7532    0.0000 C   0  0  0  0  0  0  0  0  0  0  0  0
    3.4197   -5.1657    0.0000 O   0  0  0  0  0  0  0  0  0  0  0  0
    4.8487   -5.1657    0.0000 O   0  0  0  0  0  0  0  0  0  0  0  0
   -0.2388   -4.7486    0.0000 C   0  0  0  0  0  0  0  0  0  0  0  0
   -1.0458   -4.9202    0.0000 N   0  0  0  0  0  0  0  0  0  0  0  0
   -1.4583   -4.2057    0.0000 N   0  0  0  0  0  0  0  0  0  0  0  0
   -2.2788   -4.1195    0.0000 C   0  0  0  0  0  0  0  0  0  0  0  0
   -2.7637   -4.7869    0.0000 C   0  0  0  0  0  0  0  0  0  0  0  0
   -3.5842   -4.7007    0.0000 C   0  0  0  0  0  0  0  0  0  0  0  0
   -3.9198   -3.9470    0.0000 C   0  0  0  0  0  0  0  0  0  0  0  0
   -4.7402   -3.8608    0.0000 O   0  0  0  0  0  0  0  0  0  0  0  0
   -3.4348   -3.2795    0.0000 C   0  0  0  0  0  0  0  0  0  0  0  0
   -2.6144   -3.3658    0.0000 C   0  0  0  0  0  0  0  0  0  0  0  0
  1  2  1  0  0  0  0
  2  3  4  0  0  0  0
  3  4  1  0  0  0  0
  4  5  1  0  0  0  0
  5  6  1  0  0  0  0
  6  7  2  0  0  0  0
  6  8  1  0  0  0  0
  8  9  1  0  0  0  0
  9 10  4  0  0  0  0
 10 11  4  0  0  0  0
 11 12  4  0  0  0  0
 12 13  4  0  0  0  0
 13 14  4  0  0  0  0
  9 14  4  0  0  0  0
 14 15  1  0  0  0  0
 15 16  2  0  0  0  0
 15 17  1  0  0  0  0
  3 18  4  0  0  0  0
 18 19  4  0  0  0  0
 19 20  4  0  0  0  0
  2 20  4  0  0  0  0
 20 21  1  0  0  0  0
 21 22  4  0  0  0  0
 22 23  4  0  0  0  0
 23 24  4  0  0  0  0
 24 25  1  0  0  0  0
 24 26  4  0  0  0  0
 26 27  4  0  0  0  0
 21 27  4  0  0  0  0
M  END
>  <CdId>
521

>  <Mol Weight>
365.389

>  <Formula>
C20H19N3O4

>  <Molecule ChEMBL ID>
CHEMBL236163

>  <Molecule Max Phase>
None

>  <Molecular Weight>
365.39

>  <#RO5 Violations>
0

>  <AlogP>
3.16

>  <Compound Key>
4a

>  <Standard Type>
IC50

>  <Standard Relation>
'='

>  <Standard Value>
19000.0

>  <Standard Units>
nM

$$$$

  Mrv2114 03112311372D          

 21 23  0  0  0  0            999 V2000
   -0.5837   -1.4124    0.0000 O   0  0  0  0  0  0  0  0  0  0  0  0
   -0.1712   -0.6979    0.0000 C   0  0  0  0  0  0  0  0  0  0  0  0
   -0.5837    0.0165    0.0000 N   0  0  0  0  0  0  0  0  0  0  0  0
   -1.4087    0.0165    0.0000 C   0  0  0  0  0  0  0  0  0  0  0  0
   -1.7667   -0.7268    0.0000 C   0  0  0  0  0  0  0  0  0  0  0  0
   -2.5710   -0.9104    0.0000 C   0  0  0  0  0  0  0  0  0  0  0  0
   -3.2160   -0.3960    0.0000 C   0  0  0  0  0  0  0  0  0  0  0  0
   -3.2160    0.4290    0.0000 C   0  0  0  0  0  0  0  0  0  0  0  0
   -2.5710    0.9434    0.0000 C   0  0  0  0  0  0  0  0  0  0  0  0
   -1.7667    0.7598    0.0000 C   0  0  0  0  0  0  0  0  0  0  0  0
    0.6538   -0.6979    0.0000 C   0  0  0  0  0  0  0  0  0  0  0  0
    1.1387   -0.0305    0.0000 C   0  0  0  0  0  0  0  0  0  0  0  0
    1.9233   -0.2854    0.0000 C   0  0  0  0  0  0  0  0  0  0  0  0
    2.6378    0.1271    0.0000 C   0  0  0  0  0  0  0  0  0  0  0  0
    2.6378    0.9521    0.0000 Cl  0  0  0  0  0  0  0  0  0  0  0  0
    3.3523   -0.2854    0.0000 C   0  0  0  0  0  0  0  0  0  0  0  0
    3.3523   -1.1104    0.0000 C   0  0  0  0  0  0  0  0  0  0  0  0
    4.0668   -1.5229    0.0000 Cl  0  0  0  0  0  0  0  0  0  0  0  0
    2.6378   -1.5229    0.0000 C   0  0  0  0  0  0  0  0  0  0  0  0
    1.9233   -1.1104    0.0000 C   0  0  0  0  0  0  0  0  0  0  0  0
    1.1387   -1.3654    0.0000 N   0  0  0  0  0  0  0  0  0  0  0  0
  1  2  2  0  0  0  0
  2  3  1  0  0  0  0
  3  4  1  0  0  0  0
  4  5  1  0  0  0  0
  5  6  1  0  0  0  0
  6  7  1  0  0  0  0
  7  8  1  0  0  0  0
  8  9  1  0  0  0  0
  9 10  1  0  0  0  0
  4 10  1  0  0  0  0
  2 11  1  0  0  0  0
 11 12  4  0  0  0  0
 12 13  4  0  0  0  0
 13 14  4  0  0  0  0
 14 15  1  0  0  0  0
 14 16  4  0  0  0  0
 16 17  4  0  0  0  0
 17 18  1  0  0  0  0
 17 19  4  0  0  0  0
 19 20  4  0  0  0  0
 13 20  4  0  0  0  0
 20 21  4  0  0  0  0
 11 21  4  0  0  0  0
M  STY  1   1 DAT
M  SAL   1  1  21
M  SDT   1 MRV_IMPLICIT_H                                        
M  SDD   1     0.0000    0.0000    DR    ALL  0       0  
M  SED   1 IMPL_H1
M  END
>  <CdId>
522

>  <Mol Weight>
325.23

>  <Formula>
C16H18Cl2N2O

>  <Molecule ChEMBL ID>
CHEMBL4090593

>  <Molecule Max Phase>
None

>  <Molecular Weight>
325.24

>  <#RO5 Violations>
0

>  <AlogP>
4.93

>  <Compound Key>
12

>  <Standard Type>
IC50

>  <Standard Relation>
'<='

>  <Standard Value>
20000.0

>  <Standard Units>
nM

$$$$

  Mrv2114 03112311372D          

 42 47  0  0  1  0            999 V2000
    2.4529    3.2175    0.0000 C   0  0  0  0  0  0  0  0  0  0  0  0
    2.8429    2.4905    0.0000 C   0  0  0  0  0  0  0  0  0  0  0  0
    2.4083    1.7892    0.0000 C   0  0  2  0  0  0  0  0  0  0  0  0
    2.7983    1.0622    0.0000 C   0  0  0  0  0  0  0  0  0  0  0  0
    3.5995    0.8656    0.0000 C   0  0  0  0  0  0  0  0  0  0  0  0
    4.2295    1.3982    0.0000 C   0  0  0  0  0  0  0  0  0  0  0  0
    4.8596    1.9308    0.0000 N   0  0  0  0  0  0  0  0  0  0  0  0
    3.6601    0.0428    0.0000 N   0  0  0  0  0  0  0  0  0  0  0  0
    2.8963   -0.2691    0.0000 C   0  0  0  0  0  0  0  0  0  0  0  0
    2.3637    0.3610    0.0000 N   0  0  0  0  0  0  0  0  0  0  0  0
    1.5391    0.3867    0.0000 C   0  0  0  0  0  0  0  0  0  0  0  0
    1.1045   -0.3145    0.0000 C   0  0  0  0  0  0  0  0  0  0  0  0
    0.2799   -0.2887    0.0000 N   0  0  0  0  0  0  0  0  0  0  0  0
   -0.1101    0.4383    0.0000 C   0  0  0  0  0  0  0  0  0  0  0  0
   -0.9347    0.4640    0.0000 N   0  0  0  0  0  0  0  0  0  0  0  0
   -1.3247    1.1910    0.0000 C   0  0  0  0  0  0  0  0  0  0  0  0
   -0.8901    1.8923    0.0000 C   0  0  0  0  0  0  0  0  0  0  0  0
   -1.2801    2.6193    0.0000 C   0  0  0  0  0  0  0  0  0  0  0  0
   -0.8455    3.3205    0.0000 F   0  0  0  0  0  0  0  0  0  0  0  0
   -2.1047    2.6450    0.0000 C   0  0  0  0  0  0  0  0  0  0  0  0
   -2.4947    3.3720    0.0000 C   0  0  0  0  0  0  0  0  0  0  0  0
   -2.0601    4.0733    0.0000 O   0  0  0  0  0  0  0  0  0  0  0  0
   -3.3193    3.3978    0.0000 N   0  0  0  0  0  0  0  0  0  0  0  0
   -3.7093    4.1248    0.0000 C   0  0  0  0  0  0  0  0  0  0  0  0
   -4.5339    4.1506    0.0000 C   0  0  0  0  0  0  0  0  0  0  0  0
   -4.9238    4.8776    0.0000 C   0  0  0  0  0  0  0  0  0  0  0  0
   -4.4892    5.5788    0.0000 N   0  0  0  0  0  0  0  0  0  0  0  0
   -4.8792    6.3058    0.0000 C   0  0  0  0  0  0  0  0  0  0  0  0
   -3.6646    5.5531    0.0000 C   0  0  0  0  0  0  0  0  0  0  0  0
   -3.2746    4.8260    0.0000 C   0  0  0  0  0  0  0  0  0  0  0  0
   -2.5393    1.9438    0.0000 C   0  0  0  0  0  0  0  0  0  0  0  0
   -2.1493    1.2168    0.0000 C   0  0  0  0  0  0  0  0  0  0  0  0
   -2.5839    0.5156    0.0000 O   0  0  0  0  0  0  0  0  0  0  0  0
   -2.1939   -0.2115    0.0000 C   0  0  0  0  0  0  0  0  0  0  0  0
    0.3245    1.1395    0.0000 N   0  0  0  0  0  0  0  0  0  0  0  0
    1.1491    1.1137    0.0000 C   0  0  0  0  0  0  0  0  0  0  0  0
    1.5837    1.8150    0.0000 N   0  0  0  0  0  0  0  0  0  0  0  0
    1.1937    2.5420    0.0000 C   0  0  0  0  0  0  0  0  0  0  0  0
    0.3763    2.6538    0.0000 C   0  0  0  0  0  0  0  0  0  0  0  0
    0.2301    3.4657    0.0000 C   0  0  0  0  0  0  0  0  0  0  0  0
    0.9571    3.8557    0.0000 C   0  0  0  0  0  0  0  0  0  0  0  0
    1.5526    3.2848    0.0000 C   0  0  0  0  0  0  0  0  0  0  0  0
  1  2  1  0  0  0  0
  3  2  1  6  0  0  0
  3  4  1  0  0  0  0
  4  5  4  0  0  0  0
  5  6  1  0  0  0  0
  6  7  3  0  0  0  0
  5  8  4  0  0  0  0
  8  9  4  0  0  0  0
  9 10  4  0  0  0  0
  4 10  4  0  0  0  0
 10 11  1  0  0  0  0
 11 12  4  0  0  0  0
 12 13  4  0  0  0  0
 13 14  4  0  0  0  0
 14 15  1  0  0  0  0
 15 16  1  0  0  0  0
 16 17  4  0  0  0  0
 17 18  4  0  0  0  0
 18 19  1  0  0  0  0
 18 20  4  0  0  0  0
 20 21  1  0  0  0  0
 21 22  2  0  0  0  0
 21 23  1  0  0  0  0
 23 24  1  0  0  0  0
 24 25  1  0  0  0  0
 25 26  1  0  0  0  0
 26 27  1  0  0  0  0
 27 28  1  0  0  0  0
 27 29  1  0  0  0  0
 29 30  1  0  0  0  0
 24 30  1  0  0  0  0
 20 31  4  0  0  0  0
 31 32  4  0  0  0  0
 16 32  4  0  0  0  0
 32 33  1  0  0  0  0
 33 34  1  0  0  0  0
 14 35  4  0  0  0  0
 35 36  4  0  0  0  0
 11 36  4  0  0  0  0
 36 37  1  0  0  0  0
  3 37  1  0  0  0  0
 37 38  1  0  0  0  0
 38 39  1  0  0  0  0
 39 40  1  0  0  0  0
 40 41  1  0  0  0  0
 41 42  1  0  0  0  0
 38 42  1  0  0  0  0
M  END
>  <CdId>
523

>  <Mol Weight>
573.677

>  <Formula>
C30H36FN9O2

>  <Molecule ChEMBL ID>
CHEMBL4066163

>  <Molecule Max Phase>
None

>  <Molecular Weight>
573.68

>  <#RO5 Violations>
1

>  <AlogP>
4.46

>  <Compound Key>
28

>  <Standard Type>
IC50

>  <Standard Relation>
'<'

>  <Standard Value>
10000.0

>  <Standard Units>
nM

$$$$

  Mrv2114 03112311372D          

 23 25  0  0  0  0            999 V2000
    4.7812    1.9354    0.0000 C   0  0  0  0  0  0  0  0  0  0  0  0
    4.0668    2.3479    0.0000 O   0  0  0  0  0  0  0  0  0  0  0  0
    3.3523    1.9354    0.0000 C   0  0  0  0  0  0  0  0  0  0  0  0
    3.3523    1.1104    0.0000 C   0  0  0  0  0  0  0  0  0  0  0  0
    2.6378    0.6979    0.0000 C   0  0  0  0  0  0  0  0  0  0  0  0
    1.9233    1.1104    0.0000 C   0  0  0  0  0  0  0  0  0  0  0  0
    1.1387    0.8555    0.0000 N   0  0  0  0  0  0  0  0  0  0  0  0
    0.6538    1.5229    0.0000 C   0  0  0  0  0  0  0  0  0  0  0  0
   -0.1712    1.5229    0.0000 S   0  0  0  0  0  0  0  0  0  0  0  0
   -0.5837    0.8085    0.0000 C   0  0  0  0  0  0  0  0  0  0  0  0
   -1.4087    0.8085    0.0000 C   0  0  0  0  0  0  0  0  0  0  0  0
   -1.8212    0.0940    0.0000 C   0  0  0  0  0  0  0  0  0  0  0  0
   -2.6462    0.0940    0.0000 C   0  0  0  0  0  0  0  0  0  0  0  0
   -3.0587    0.8085    0.0000 C   0  0  0  0  0  0  0  0  0  0  0  0
   -3.8837    0.8085    0.0000 C   0  0  0  0  0  0  0  0  0  0  0  0
   -4.7087    0.8085    0.0000 C   0  0  0  0  0  0  0  0  0  0  0  0
   -3.8837    1.6335    0.0000 C   0  0  0  0  0  0  0  0  0  0  0  0
   -3.8837   -0.0165    0.0000 C   0  0  0  0  0  0  0  0  0  0  0  0
   -2.6462    1.5229    0.0000 C   0  0  0  0  0  0  0  0  0  0  0  0
   -1.8212    1.5229    0.0000 C   0  0  0  0  0  0  0  0  0  0  0  0
    1.1387    2.1904    0.0000 N   0  0  0  0  0  0  0  0  0  0  0  0
    1.9233    1.9354    0.0000 C   0  0  0  0  0  0  0  0  0  0  0  0
    2.6378    2.3479    0.0000 C   0  0  0  0  0  0  0  0  0  0  0  0
  1  2  1  0  0  0  0
  2  3  1  0  0  0  0
  3  4  4  0  0  0  0
  4  5  4  0  0  0  0
  5  6  4  0  0  0  0
  6  7  4  0  0  0  0
  7  8  4  0  0  0  0
  8  9  1  0  0  0  0
  9 10  1  0  0  0  0
 10 11  1  0  0  0  0
 11 12  4  0  0  0  0
 12 13  4  0  0  0  0
 13 14  4  0  0  0  0
 14 15  1  0  0  0  0
 15 16  1  0  0  0  0
 15 17  1  0  0  0  0
 15 18  1  0  0  0  0
 14 19  4  0  0  0  0
 19 20  4  0  0  0  0
 11 20  4  0  0  0  0
  8 21  4  0  0  0  0
 21 22  4  0  0  0  0
  6 22  4  0  0  0  0
 22 23  4  0  0  0  0
  3 23  4  0  0  0  0
M  STY  1   1 DAT
M  SAL   1  1   7
M  SDT   1 MRV_IMPLICIT_H                                        
M  SDD   1     0.0000    0.0000    DR    ALL  0       0  
M  SED   1 IMPL_H1
M  END
>  <CdId>
524

>  <Mol Weight>
326.46

>  <Formula>
C19H22N2OS

>  <Molecule ChEMBL ID>
CHEMBL2018918

>  <Molecule Max Phase>
None

>  <Molecular Weight>
326.47

>  <#RO5 Violations>
1

>  <AlogP>
5.16

>  <Compound Key>
16

>  <Standard Type>
IC50

>  <Standard Relation>
'='

>  <Standard Value>
970.0

>  <Standard Units>
nM

$$$$

  Mrv2114 03112311372D          

 20 22  0  0  0  0            999 V2000
    4.7812    1.9354    0.0000 C   0  0  0  0  0  0  0  0  0  0  0  0
    4.0668    2.3479    0.0000 O   0  0  0  0  0  0  0  0  0  0  0  0
    3.3523    1.9354    0.0000 C   0  0  0  0  0  0  0  0  0  0  0  0
    3.3523    1.1104    0.0000 C   0  0  0  0  0  0  0  0  0  0  0  0
    2.6378    0.6979    0.0000 C   0  0  0  0  0  0  0  0  0  0  0  0
    1.9233    1.1104    0.0000 C   0  0  0  0  0  0  0  0  0  0  0  0
    1.1387    0.8555    0.0000 N   0  0  0  0  0  0  0  0  0  0  0  0
    0.6538    1.5229    0.0000 C   0  0  0  0  0  0  0  0  0  0  0  0
   -0.1712    1.5229    0.0000 S   0  0  0  0  0  0  0  0  0  0  0  0
   -0.5837    0.8085    0.0000 C   0  0  0  0  0  0  0  0  0  0  0  0
   -1.4087    0.8085    0.0000 C   0  0  0  0  0  0  0  0  0  0  0  0
   -1.8212    0.0940    0.0000 C   0  0  0  0  0  0  0  0  0  0  0  0
   -2.6462    0.0940    0.0000 C   0  0  0  0  0  0  0  0  0  0  0  0
   -3.0587    0.8085    0.0000 C   0  0  0  0  0  0  0  0  0  0  0  0
   -3.8837    0.8085    0.0000 Cl  0  0  0  0  0  0  0  0  0  0  0  0
   -2.6462    1.5229    0.0000 C   0  0  0  0  0  0  0  0  0  0  0  0
   -1.8212    1.5229    0.0000 C   0  0  0  0  0  0  0  0  0  0  0  0
    1.1387    2.1904    0.0000 N   0  0  0  0  0  0  0  0  0  0  0  0
    1.9233    1.9354    0.0000 C   0  0  0  0  0  0  0  0  0  0  0  0
    2.6378    2.3479    0.0000 C   0  0  0  0  0  0  0  0  0  0  0  0
  1  2  1  0  0  0  0
  2  3  1  0  0  0  0
  3  4  4  0  0  0  0
  4  5  4  0  0  0  0
  5  6  4  0  0  0  0
  6  7  4  0  0  0  0
  7  8  4  0  0  0  0
  8  9  1  0  0  0  0
  9 10  1  0  0  0  0
 10 11  1  0  0  0  0
 11 12  4  0  0  0  0
 12 13  4  0  0  0  0
 13 14  4  0  0  0  0
 14 15  1  0  0  0  0
 14 16  4  0  0  0  0
 16 17  4  0  0  0  0
 11 17  4  0  0  0  0
  8 18  4  0  0  0  0
 18 19  4  0  0  0  0
  6 19  4  0  0  0  0
 19 20  4  0  0  0  0
  3 20  4  0  0  0  0
M  STY  1   1 DAT
M  SAL   1  1   7
M  SDT   1 MRV_IMPLICIT_H                                        
M  SDD   1     0.0000    0.0000    DR    ALL  0       0  
M  SED   1 IMPL_H1
M  END
>  <CdId>
525

>  <Mol Weight>
304.79

>  <Formula>
C15H13ClN2OS

>  <Molecule ChEMBL ID>
CHEMBL2018919

>  <Molecule Max Phase>
None

>  <Molecular Weight>
304.8

>  <#RO5 Violations>
0

>  <AlogP>
4.52

>  <Compound Key>
17

>  <Standard Type>
IC50

>  <Standard Relation>
'='

>  <Standard Value>
1440.0

>  <Standard Units>
nM

$$$$

  Mrv2114 03112311372D          

 27 30  0  0  0  0            999 V2000
    2.3747    5.2820    0.0000 C   0  0  0  0  0  0  0  0  0  0  0  0
    3.0892    4.8695    0.0000 C   0  0  0  0  0  0  0  0  0  0  0  0
    3.0892    4.0445    0.0000 O   0  0  0  0  0  0  0  0  0  0  0  0
    3.8037    3.6320    0.0000 C   0  0  0  0  0  0  0  0  0  0  0  0
    4.5181    4.0445    0.0000 O   0  0  0  0  0  0  0  0  0  0  0  0
    3.8037    2.8070    0.0000 N   0  0  0  0  0  0  0  0  0  0  0  0
    4.5181    2.3945    0.0000 C   0  0  0  0  0  0  0  0  0  0  0  0
    4.5181    1.5695    0.0000 C   0  0  0  0  0  0  0  0  0  0  0  0
    3.8037    1.1570    0.0000 C   0  0  0  0  0  0  0  0  0  0  0  0
    3.8037    0.3320    0.0000 C   0  0  0  0  0  0  0  0  0  0  0  0
    4.5470   -0.0260    0.0000 C   0  0  0  0  0  0  0  0  0  0  0  0
    5.1517    0.5352    0.0000 C   0  0  0  0  0  0  0  0  0  0  0  0
    5.9401    0.2920    0.0000 C   0  0  0  0  0  0  0  0  0  0  0  0
    6.1237   -0.5123    0.0000 C   0  0  0  0  0  0  0  0  0  0  0  0
    6.9120   -0.7555    0.0000 Cl  0  0  0  0  0  0  0  0  0  0  0  0
    5.5189   -1.0735    0.0000 C   0  0  0  0  0  0  0  0  0  0  0  0
    4.7305   -0.8303    0.0000 C   0  0  0  0  0  0  0  0  0  0  0  0
    4.2162   -1.4753    0.0000 C   0  0  0  0  0  0  0  0  0  0  0  0
    3.3912   -1.4753    0.0000 C   0  0  0  0  0  0  0  0  0  0  0  0
    2.8768   -0.8303    0.0000 C   0  0  0  0  0  0  0  0  0  0  0  0
    2.0884   -1.0735    0.0000 C   0  0  0  0  0  0  0  0  0  0  0  0
    1.4837   -0.5123    0.0000 C   0  0  0  0  0  0  0  0  0  0  0  0
    1.6673    0.2920    0.0000 C   0  0  0  0  0  0  0  0  0  0  0  0
    2.4556    0.5352    0.0000 N   0  0  0  0  0  0  0  0  0  0  0  0
    3.0604   -0.0260    0.0000 C   0  0  0  0  0  0  0  0  0  0  0  0
    3.0892    1.5695    0.0000 C   0  0  0  0  0  0  0  0  0  0  0  0
    3.0892    2.3945    0.0000 C   0  0  0  0  0  0  0  0  0  0  0  0
  1  2  1  0  0  0  0
  2  3  1  0  0  0  0
  3  4  1  0  0  0  0
  4  5  2  0  0  0  0
  4  6  1  0  0  0  0
  6  7  1  0  0  0  0
  7  8  1  0  0  0  0
  8  9  1  0  0  0  0
  9 10  2  0  0  0  0
 10 11  1  0  0  0  0
 11 12  4  0  0  0  0
 12 13  4  0  0  0  0
 13 14  4  0  0  0  0
 14 15  1  0  0  0  0
 14 16  4  0  0  0  0
 16 17  4  0  0  0  0
 11 17  4  0  0  0  0
 17 18  1  0  0  0  0
 18 19  1  0  0  0  0
 19 20  1  0  0  0  0
 20 21  4  0  0  0  0
 21 22  4  0  0  0  0
 22 23  4  0  0  0  0
 23 24  4  0  0  0  0
 24 25  4  0  0  0  0
 20 25  4  0  0  0  0
 10 25  1  0  0  0  0
  9 26  1  0  0  0  0
 26 27  1  0  0  0  0
  6 27  1  0  0  0  0
M  END
>  <CdId>
526

>  <Mol Weight>
382.89

>  <Formula>
C22H23ClN2O2

>  <Molecule ChEMBL ID>
CHEMBL998

>  <Molecule Name>
LORATADINE

>  <Molecule Max Phase>
4

>  <Molecular Weight>
382.89

>  <#RO5 Violations>
0

>  <AlogP>
4.89

>  <Compound Key>
8

>  <Standard Type>
IC50

>  <Standard Relation>
'='

>  <Standard Value>
2950.0

>  <Standard Units>
nM

$$$$

  Mrv2114 03112311372D          

 22 24  0  0  0  0            999 V2000
    4.7812    4.4104    0.0000 C   0  0  0  0  0  0  0  0  0  0  0  0
    4.7812    3.5854    0.0000 C   0  0  0  0  0  0  0  0  0  0  0  0
    5.4957    3.1729    0.0000 C   0  0  0  0  0  0  0  0  0  0  0  0
    5.4957    2.3479    0.0000 C   0  0  0  0  0  0  0  0  0  0  0  0
    4.7812    1.9354    0.0000 C   0  0  0  0  0  0  0  0  0  0  0  0
    4.0668    2.3479    0.0000 C   0  0  0  0  0  0  0  0  0  0  0  0
    3.3523    1.9354    0.0000 C   0  0  0  0  0  0  0  0  0  0  0  0
    3.3523    1.1104    0.0000 C   0  0  0  0  0  0  0  0  0  0  0  0
    2.6378    0.6979    0.0000 N   0  0  0  0  0  0  0  0  0  0  0  0
    1.9233    1.1104    0.0000 C   0  0  0  0  0  0  0  0  0  0  0  0
    1.1387    0.8555    0.0000 C   0  0  0  0  0  0  0  0  0  0  0  0
    0.6538    1.5229    0.0000 C   0  0  0  0  0  0  0  0  0  0  0  0
    1.1387    2.1904    0.0000 N   0  0  0  0  0  0  0  0  0  0  0  0
    0.8838    2.9750    0.0000 C   0  0  0  0  0  0  0  0  0  0  0  0
    0.0768    3.1465    0.0000 C   0  0  0  0  0  0  0  0  0  0  0  0
   -0.4752    2.5334    0.0000 O   0  0  0  0  0  0  0  0  0  0  0  0
   -0.1781    3.9312    0.0000 N   0  0  0  0  0  0  0  0  0  0  0  0
   -0.9851    4.1027    0.0000 C   0  0  0  0  0  0  0  0  0  0  0  0
    0.3739    4.5442    0.0000 C   0  0  0  0  0  0  0  0  0  0  0  0
    1.9233    1.9354    0.0000 C   0  0  0  0  0  0  0  0  0  0  0  0
    2.6378    2.3479    0.0000 C   0  0  0  0  0  0  0  0  0  0  0  0
    4.0668    3.1729    0.0000 C   0  0  0  0  0  0  0  0  0  0  0  0
  1  2  1  0  0  0  0
  2  3  4  0  0  0  0
  3  4  4  0  0  0  0
  4  5  4  0  0  0  0
  5  6  4  0  0  0  0
  6  7  1  0  0  0  0
  7  8  4  0  0  0  0
  8  9  4  0  0  0  0
  9 10  4  0  0  0  0
 10 11  4  0  0  0  0
 11 12  4  0  0  0  0
 12 13  4  0  0  0  0
 13 14  1  0  0  0  0
 14 15  1  0  0  0  0
 15 16  2  0  0  0  0
 15 17  1  0  0  0  0
 17 18  1  0  0  0  0
 17 19  1  0  0  0  0
 13 20  4  0  0  0  0
 10 20  4  0  0  0  0
 20 21  4  0  0  0  0
  7 21  4  0  0  0  0
  6 22  4  0  0  0  0
  2 22  4  0  0  0  0
M  END
>  <CdId>
527

>  <Mol Weight>
293.37

>  <Formula>
C18H19N3O

>  <Molecule ChEMBL ID>
CHEMBL4474982

>  <Molecule Max Phase>
None

>  <Molecular Weight>
293.37

>  <#RO5 Violations>
0

>  <AlogP>
3.1

>  <Compound Key>
25

>  <Standard Type>
IC50

>  <Standard Relation>
'>'

>  <Standard Value>
10000.0

>  <Standard Units>
nM

$$$$

  Mrv2114 03112311372D          

 23 25  0  0  0  0            999 V2000
    6.2102    1.9354    0.0000 C   0  0  0  0  0  0  0  0  0  0  0  0
    5.4957    2.3479    0.0000 C   0  0  0  0  0  0  0  0  0  0  0  0
    4.7812    1.9354    0.0000 C   0  0  0  0  0  0  0  0  0  0  0  0
    4.0668    2.3479    0.0000 C   0  0  0  0  0  0  0  0  0  0  0  0
    3.3523    1.9354    0.0000 C   0  0  0  0  0  0  0  0  0  0  0  0
    3.3523    1.1104    0.0000 C   0  0  0  0  0  0  0  0  0  0  0  0
    2.6378    0.6979    0.0000 N   0  0  0  0  0  0  0  0  0  0  0  0
    1.9233    1.1104    0.0000 C   0  0  0  0  0  0  0  0  0  0  0  0
    1.1387    0.8555    0.0000 C   0  0  0  0  0  0  0  0  0  0  0  0
    0.6538    1.5229    0.0000 C   0  0  0  0  0  0  0  0  0  0  0  0
    1.1387    2.1904    0.0000 N   0  0  0  0  0  0  0  0  0  0  0  0
    0.8838    2.9750    0.0000 C   0  0  0  0  0  0  0  0  0  0  0  0
    0.0768    3.1465    0.0000 C   0  0  0  0  0  0  0  0  0  0  0  0
   -0.4752    2.5334    0.0000 O   0  0  0  0  0  0  0  0  0  0  0  0
   -0.1781    3.9312    0.0000 N   0  0  0  0  0  0  0  0  0  0  0  0
   -0.9851    4.1027    0.0000 C   0  0  0  0  0  0  0  0  0  0  0  0
    0.3739    4.5442    0.0000 C   0  0  0  0  0  0  0  0  0  0  0  0
    1.9233    1.9354    0.0000 C   0  0  0  0  0  0  0  0  0  0  0  0
    2.6378    2.3479    0.0000 C   0  0  0  0  0  0  0  0  0  0  0  0
    4.0668    3.1729    0.0000 C   0  0  0  0  0  0  0  0  0  0  0  0
    4.7812    3.5854    0.0000 C   0  0  0  0  0  0  0  0  0  0  0  0
    5.4957    3.1729    0.0000 C   0  0  0  0  0  0  0  0  0  0  0  0
    6.2102    3.5854    0.0000 F   0  0  0  0  0  0  0  0  0  0  0  0
  1  2  1  0  0  0  0
  2  3  4  0  0  0  0
  3  4  4  0  0  0  0
  4  5  1  0  0  0  0
  5  6  4  0  0  0  0
  6  7  4  0  0  0  0
  7  8  4  0  0  0  0
  8  9  4  0  0  0  0
  9 10  4  0  0  0  0
 10 11  4  0  0  0  0
 11 12  1  0  0  0  0
 12 13  1  0  0  0  0
 13 14  2  0  0  0  0
 13 15  1  0  0  0  0
 15 16  1  0  0  0  0
 15 17  1  0  0  0  0
 11 18  4  0  0  0  0
  8 18  4  0  0  0  0
 18 19  4  0  0  0  0
  5 19  4  0  0  0  0
  4 20  4  0  0  0  0
 20 21  4  0  0  0  0
 21 22  4  0  0  0  0
  2 22  4  0  0  0  0
 22 23  1  0  0  0  0
M  END
>  <CdId>
528

>  <Mol Weight>
311.36

>  <Formula>
C18H18FN3O

>  <Molecule ChEMBL ID>
CHEMBL4302264

>  <Molecule Max Phase>
None

>  <Molecular Weight>
311.36

>  <#RO5 Violations>
0

>  <AlogP>
3.24

>  <Compound Key>
9

>  <Standard Type>
IC50

>  <Standard Relation>
'>'

>  <Standard Value>
10000.0

>  <Standard Units>
nM

$$$$

  Mrv2114 03112311372D          

 33 37  0  0  1  0            999 V2000
    2.5229   -4.3954    0.0000 C   0  0  0  0  0  0  0  0  0  0  0  0
    2.5229   -5.2204    0.0000 C   0  0  0  0  0  0  0  0  0  0  0  0
    3.2374   -5.6329    0.0000 C   0  0  0  0  0  0  0  0  0  0  0  0
    3.9519   -5.2204    0.0000 C   0  0  1  0  0  0  0  0  0  0  0  0
    3.9519   -4.3954    0.0000 O   0  0  0  0  0  0  0  0  0  0  0  0
    4.6663   -5.6329    0.0000 C   0  0  0  0  0  0  0  0  0  0  0  0
    5.3808   -5.2204    0.0000 N   0  0  0  0  0  0  0  0  0  0  0  0
    5.3808   -4.3954    0.0000 C   0  0  0  0  0  0  0  0  0  0  0  0
    6.0953   -3.9829    0.0000 C   0  0  0  0  0  0  0  0  0  0  0  0
    6.8097   -4.3954    0.0000 C   0  0  0  0  0  0  0  0  0  0  0  0
    6.8097   -5.2204    0.0000 C   0  0  0  0  0  0  0  0  0  0  0  0
    6.0953   -5.6329    0.0000 C   0  0  0  0  0  0  0  0  0  0  0  0
    6.8960   -3.5749    0.0000 C   0  0  0  0  0  0  0  0  0  0  0  0
    7.7030   -3.4033    0.0000 C   0  0  0  0  0  0  0  0  0  0  0  0
    8.1155   -4.1178    0.0000 N   0  0  0  0  0  0  0  0  0  0  0  0
    8.9359   -4.2040    0.0000 C   0  0  0  0  0  0  0  0  0  0  0  0
    9.4209   -3.5366    0.0000 C   0  0  0  0  0  0  0  0  0  0  0  0
   10.2413   -3.6228    0.0000 C   0  0  0  0  0  0  0  0  0  0  0  0
   10.5769   -4.3765    0.0000 C   0  0  0  0  0  0  0  0  0  0  0  0
   11.3974   -4.4628    0.0000 O   0  0  0  0  0  0  0  0  0  0  0  0
   10.0920   -5.0440    0.0000 N   0  0  0  0  0  0  0  0  0  0  0  0
   10.4275   -5.7976    0.0000 C   0  0  0  0  0  0  0  0  0  0  0  0
    9.2715   -4.9577    0.0000 N   0  0  0  0  0  0  0  0  0  0  0  0
    7.5634   -4.7309    0.0000 C   0  0  0  0  0  0  0  0  0  0  0  0
    7.7350   -5.5379    0.0000 O   0  0  0  0  0  0  0  0  0  0  0  0
    3.2374   -6.4579    0.0000 C   0  0  0  0  0  0  0  0  0  0  0  0
    2.5229   -6.8704    0.0000 C   0  0  0  0  0  0  0  0  0  0  0  0
    1.8085   -6.4579    0.0000 C   0  0  0  0  0  0  0  0  0  0  0  0
    1.8085   -5.6329    0.0000 C   0  0  0  0  0  0  0  0  0  0  0  0
    1.0238   -5.3779    0.0000 C   0  0  0  0  0  0  0  0  0  0  0  0
    0.5389   -6.0454    0.0000 O   0  0  0  0  0  0  0  0  0  0  0  0
    1.0238   -6.7128    0.0000 C   0  0  0  0  0  0  0  0  0  0  0  0
    0.7689   -7.4974    0.0000 O   0  0  0  0  0  0  0  0  0  0  0  0
  1  2  1  0  0  0  0
  2  3  4  0  0  0  0
  4  3  1  0  0  0  0
  4  5  1  1  0  0  0
  4  6  1  0  0  0  0
  6  7  1  0  0  0  0
  7  8  1  0  0  0  0
  8  9  1  0  0  0  0
  9 10  1  0  0  0  0
 10 11  1  0  0  0  0
 11 12  1  0  0  0  0
  7 12  1  0  0  0  0
 10 13  1  0  0  0  0
 13 14  1  0  0  0  0
 14 15  1  0  0  0  0
 15 16  1  0  0  0  0
 16 17  4  0  0  0  0
 17 18  4  0  0  0  0
 18 19  4  0  0  0  0
 19 20  2  0  0  0  0
 19 21  4  0  0  0  0
 21 22  1  0  0  0  0
 21 23  4  0  0  0  0
 16 23  4  0  0  0  0
 15 24  1  0  0  0  0
 10 24  1  0  0  0  0
 24 25  2  0  0  0  0
  3 26  4  0  0  0  0
 26 27  4  0  0  0  0
 27 28  4  0  0  0  0
 28 29  4  0  0  0  0
  2 29  4  0  0  0  0
 29 30  1  0  0  0  0
 30 31  1  0  0  0  0
 31 32  1  0  0  0  0
 28 32  1  0  0  0  0
 32 33  2  0  0  0  0
M  END
>  <CdId>
529

>  <Mol Weight>
452.511

>  <Formula>
C24H28N4O5

>  <Molecule ChEMBL ID>
CHEMBL4069245

>  <Molecule Max Phase>
None

>  <Molecular Weight>
452.51

>  <#RO5 Violations>
0

>  <AlogP>
1.31

>  <Compound Key>
32

>  <Standard Type>
IC50

>  <Standard Relation>
'>'

>  <Standard Value>
50000.0

>  <Standard Units>
nM

$$$$

  Mrv2114 03112311372D          

 40 43  0  0  1  0            999 V2000
   -2.4145   -3.7071    0.0000 C   0  0  0  0  0  0  0  0  0  0  0  0
   -1.7845   -3.1744    0.0000 C   0  0  0  0  0  0  0  0  0  0  0  0
   -1.2518   -3.8045    0.0000 C   0  0  0  0  0  0  0  0  0  0  0  0
   -2.3171   -2.5444    0.0000 O   0  0  0  0  0  0  0  0  0  0  0  0
   -1.1544   -2.6418    0.0000 C   0  0  0  0  0  0  0  0  0  0  0  0
   -1.3007   -1.8299    0.0000 O   0  0  0  0  0  0  0  0  0  0  0  0
   -0.3781   -2.9211    0.0000 N   0  0  0  0  0  0  0  0  0  0  0  0
    0.2519   -2.3885    0.0000 C   0  0  2  0  0  0  0  0  0  0  0  0
    0.1913   -1.5657    0.0000 C   0  0  0  0  0  0  0  0  0  0  0  0
    0.9551   -1.2539    0.0000 C   0  0  0  0  0  0  0  0  0  0  0  0
    1.4877   -1.8839    0.0000 C   0  0  1  0  0  0  0  0  0  0  0  0
    1.8467   -1.1411    0.0000 S   0  0  0  0  0  0  0  0  0  0  0  0
    2.5737   -0.7511    0.0000 O   0  0  0  0  0  0  0  0  0  0  0  0
    1.1038   -0.7822    0.0000 O   0  0  0  0  0  0  0  0  0  0  0  0
    2.2056   -0.3983    0.0000 C   0  0  0  0  0  0  0  0  0  0  0  0
    1.7417    0.2840    0.0000 C   0  0  0  0  0  0  0  0  0  0  0  0
    2.1007    1.0268    0.0000 C   0  0  0  0  0  0  0  0  0  0  0  0
    2.9234    1.0874    0.0000 C   0  0  0  0  0  0  0  0  0  0  0  0
    3.2824    1.8302    0.0000 F   0  0  0  0  0  0  0  0  0  0  0  0
    3.3873    0.4051    0.0000 C   0  0  0  0  0  0  0  0  0  0  0  0
    3.0284   -0.3377    0.0000 C   0  0  0  0  0  0  0  0  0  0  0  0
    2.3123   -1.9097    0.0000 C   0  0  0  0  0  0  0  0  0  0  0  0
    2.7469   -1.2084    0.0000 C   0  0  0  0  0  0  0  0  0  0  0  0
    3.5715   -1.2342    0.0000 C   0  0  0  0  0  0  0  0  0  0  0  0
    3.9615   -1.9612    0.0000 C   0  0  0  0  0  0  0  0  0  0  0  0
    4.7861   -1.9870    0.0000 C   0  0  0  0  0  0  0  0  0  0  0  0
    4.8119   -1.1624    0.0000 F   0  0  0  0  0  0  0  0  0  0  0  0
    4.7603   -2.8116    0.0000 C   0  0  0  0  0  0  0  0  0  0  0  0
    4.7346   -3.6362    0.0000 F   0  0  0  0  0  0  0  0  0  0  0  0
    3.9358   -2.7858    0.0000 F   0  0  0  0  0  0  0  0  0  0  0  0
    5.5849   -2.8373    0.0000 F   0  0  0  0  0  0  0  0  0  0  0  0
    5.6107   -2.0127    0.0000 C   0  0  0  0  0  0  0  0  0  0  0  0
    6.4353   -2.0385    0.0000 F   0  0  0  0  0  0  0  0  0  0  0  0
    6.0746   -2.6950    0.0000 F   0  0  0  0  0  0  0  0  0  0  0  0
    5.6365   -1.1881    0.0000 F   0  0  0  0  0  0  0  0  0  0  0  0
    3.5269   -2.6624    0.0000 C   0  0  0  0  0  0  0  0  0  0  0  0
    2.7023   -2.6367    0.0000 C   0  0  0  0  0  0  0  0  0  0  0  0
    2.2677   -3.3379    0.0000 C   0  0  0  0  0  0  0  0  0  0  0  0
    1.4431   -3.3122    0.0000 C   0  0  0  0  0  0  0  0  0  0  0  0
    1.0531   -2.5852    0.0000 C   0  0  1  0  0  0  0  0  0  0  0  0
  1  2  1  0  0  0  0
  2  3  1  0  0  0  0
  2  4  1  0  0  0  0
  2  5  1  0  0  0  0
  5  6  2  0  0  0  0
  5  7  1  0  0  0  0
  8  7  1  6  0  0  0
  8  9  1  0  0  0  0
  9 10  1  0  0  0  0
 11 10  1  0  0  0  0
 11 12  1  6  0  0  0
 12 13  2  0  0  0  0
 12 14  2  0  0  0  0
 12 15  1  0  0  0  0
 15 16  4  0  0  0  0
 16 17  4  0  0  0  0
 17 18  4  0  0  0  0
 18 19  1  0  0  0  0
 18 20  4  0  0  0  0
 20 21  4  0  0  0  0
 15 21  4  0  0  0  0
 11 22  1  0  0  0  0
 22 23  4  0  0  0  0
 23 24  4  0  0  0  0
 24 25  4  0  0  0  0
 25 26  1  0  0  0  0
 26 27  1  0  0  0  0
 26 28  1  0  0  0  0
 28 29  1  0  0  0  0
 28 30  1  0  0  0  0
 28 31  1  0  0  0  0
 26 32  1  0  0  0  0
 32 33  1  0  0  0  0
 32 34  1  0  0  0  0
 32 35  1  0  0  0  0
 25 36  4  0  0  0  0
 36 37  4  0  0  0  0
 22 37  4  0  0  0  0
 37 38  1  0  0  0  0
 38 39  1  0  0  0  0
 40 39  1  1  0  0  0
 40  8  1  0  0  0  0
 40 11  1  0  0  0  0
M  END
>  <CdId>
530

>  <Mol Weight>
599.54

>  <Formula>
C26H25F8NO4S

>  <Molecule ChEMBL ID>
CHEMBL4761772

>  <Molecule Max Phase>
None

>  <Molecular Weight>
599.54

>  <#RO5 Violations>
2

>  <AlogP>
5.4

>  <Compound Key>
3d; BMS-98631

>  <Standard Type>
IC50

>  <Standard Relation>
'='

>  <Standard Value>
12000.0

>  <Standard Units>
nM

$$$$

  Mrv2114 03112311372D          

 25 24  0  0  0  0            999 V2000
   -3.6237    2.8579    0.0000 C   0  0  0  0  0  0  0  0  0  0  0  0
   -2.9092    3.2704    0.0000 N   0  0  0  0  0  0  0  0  0  0  0  0
   -2.1947    2.8579    0.0000 C   0  0  0  0  0  0  0  0  0  0  0  0
   -2.1947    2.0329    0.0000 O   0  0  0  0  0  0  0  0  0  0  0  0
   -1.4802    3.2704    0.0000 C   0  0  0  0  0  0  0  0  0  0  0  0
   -1.4802    4.0954    0.0000 O   0  0  0  0  0  0  0  0  0  0  0  0
   -0.7658    2.8579    0.0000 N   0  0  0  0  0  0  0  0  0  0  0  0
   -0.0513    3.2704    0.0000 C   0  0  0  0  0  0  0  0  0  0  0  0
    0.6632    2.8579    0.0000 C   0  0  0  0  0  0  0  0  0  0  0  0
    1.3776    3.2704    0.0000 C   0  0  0  0  0  0  0  0  0  0  0  0
    2.0921    2.8579    0.0000 C   0  0  0  0  0  0  0  0  0  0  0  0
    2.8066    3.2704    0.0000 C   0  0  0  0  0  0  0  0  0  0  0  0
    3.5211    2.8579    0.0000 C   0  0  0  0  0  0  0  0  0  0  0  0
    4.2355    3.2704    0.0000 C   0  0  0  0  0  0  0  0  0  0  0  0
    4.9500    2.8579    0.0000 C   0  0  0  0  0  0  0  0  0  0  0  0
    5.6645    3.2704    0.0000 C   0  0  0  0  0  0  0  0  0  0  0  0
    6.3789    2.8579    0.0000 C   0  0  0  0  0  0  0  0  0  0  0  0
    7.0934    3.2704    0.0000 C   0  0  0  0  0  0  0  0  0  0  0  0
    7.8079    2.8579    0.0000 C   0  0  0  0  0  0  0  0  0  0  0  0
    8.5224    3.2704    0.0000 C   0  0  0  0  0  0  0  0  0  0  0  0
    9.2368    2.8579    0.0000 O   0  0  0  0  0  0  0  0  0  0  0  0
    9.9513    3.2704    0.0000 C   0  0  0  0  0  0  0  0  0  0  0  0
   10.6658    2.8579    0.0000 C   0  0  0  0  0  0  0  0  0  0  0  0
   11.3802    3.2704    0.0000 O   0  0  0  0  0  0  0  0  0  0  0  0
   10.6658    2.0329    0.0000 O   0  0  0  0  0  0  0  0  0  0  0  0
  1  2  1  0  0  0  0
  2  3  1  0  0  0  0
  3  4  2  0  0  0  0
  3  5  1  0  0  0  0
  5  6  2  0  0  0  0
  5  7  1  0  0  0  0
  7  8  1  0  0  0  0
  8  9  1  0  0  0  0
  9 10  1  0  0  0  0
 10 11  1  0  0  0  0
 12 11  1  4  0  0  0
 12 13  2  0  0  0  0
 13 14  1  0  0  0  0
 14 15  1  0  0  0  0
 15 16  1  0  0  0  0
 16 17  1  0  0  0  0
 17 18  1  0  0  0  0
 18 19  1  0  0  0  0
 19 20  1  0  0  0  0
 20 21  1  0  0  0  0
 21 22  1  0  0  0  0
 22 23  1  0  0  0  0
 23 24  2  0  0  0  0
 23 25  1  0  0  0  0
M  END
>  <CdId>
531

>  <Mol Weight>
356.463

>  <Formula>
C18H32N2O5

>  <Molecule ChEMBL ID>
CHEMBL4473988

>  <Molecule Max Phase>
None

>  <Molecular Weight>
356.46

>  <#RO5 Violations>
0

>  <AlogP>
2.02

>  <Compound Key>
4

>  <Standard Type>
IC50

>  <Standard Relation>
'>'

>  <Standard Value>
50000.0

>  <Standard Units>
nM

$$$$

  Mrv2114 03112311372D          

 32 35  0  0  0  0            999 V2000
   -2.6577    1.7457    0.0000 C   0  0  0  0  0  0  0  0  0  0  0  0
   -2.3221    0.9920    0.0000 C   0  0  0  0  0  0  0  0  0  0  0  0
   -1.5152    0.8205    0.0000 C   0  0  0  0  0  0  0  0  0  0  0  0
   -1.4289    0.0000    0.0000 N   0  0  0  0  0  0  0  0  0  0  0  0
   -0.7145   -0.4125    0.0000 C   0  0  0  0  0  0  0  0  0  0  0  0
   -0.7145   -1.2375    0.0000 C   0  0  0  0  0  0  0  0  0  0  0  0
    0.0000   -1.6500    0.0000 C   0  0  0  0  0  0  0  0  0  0  0  0
    0.7145   -1.2375    0.0000 C   0  0  0  0  0  0  0  0  0  0  0  0
    0.7145   -0.4125    0.0000 N   0  0  0  0  0  0  0  0  0  0  0  0
    0.0000   -0.0000    0.0000 C   0  0  0  0  0  0  0  0  0  0  0  0
    0.0000    0.8250    0.0000 O   0  0  0  0  0  0  0  0  0  0  0  0
    1.4289   -0.0000    0.0000 C   0  0  0  0  0  0  0  0  0  0  0  0
    2.1434   -0.4125    0.0000 C   0  0  0  0  0  0  0  0  0  0  0  0
    2.1434   -1.2375    0.0000 N   0  0  0  0  0  0  0  0  0  0  0  0
    2.8579   -1.6500    0.0000 C   0  0  0  0  0  0  0  0  0  0  0  0
    2.8579   -2.4750    0.0000 C   0  0  0  0  0  0  0  0  0  0  0  0
    3.5724   -2.8875    0.0000 O   0  0  0  0  0  0  0  0  0  0  0  0
    3.5724   -3.7125    0.0000 C   0  0  0  0  0  0  0  0  0  0  0  0
    4.2868   -4.1250    0.0000 C   0  0  0  0  0  0  0  0  0  0  0  0
    4.2868   -4.9500    0.0000 C   0  0  0  0  0  0  0  0  0  0  0  0
    3.5724   -5.3625    0.0000 C   0  0  0  0  0  0  0  0  0  0  0  0
    3.5724   -6.1875    0.0000 F   0  0  0  0  0  0  0  0  0  0  0  0
    2.8579   -4.9500    0.0000 C   0  0  0  0  0  0  0  0  0  0  0  0
    2.8579   -4.1250    0.0000 C   0  0  0  0  0  0  0  0  0  0  0  0
    2.1434   -3.7125    0.0000 C   0  0  0  0  0  0  0  0  0  0  0  0
    1.4289   -3.3000    0.0000 F   0  0  0  0  0  0  0  0  0  0  0  0
    2.5559   -2.9980    0.0000 F   0  0  0  0  0  0  0  0  0  0  0  0
    1.7309   -4.4270    0.0000 F   0  0  0  0  0  0  0  0  0  0  0  0
    1.4289   -1.6500    0.0000 C   0  0  0  0  0  0  0  0  0  0  0  0
    1.4289   -2.4750    0.0000 O   0  0  0  0  0  0  0  0  0  0  0  0
   -2.1826   -0.3356    0.0000 C   0  0  0  0  0  0  0  0  0  0  0  0
   -2.7346    0.2775    0.0000 N   0  0  0  0  0  0  0  0  0  0  0  0
  1  2  1  0  0  0  0
  2  3  4  0  0  0  0
  3  4  4  0  0  0  0
  4  5  1  0  0  0  0
  5  6  4  0  0  0  0
  6  7  4  0  0  0  0
  7  8  4  0  0  0  0
  8  9  4  0  0  0  0
  9 10  4  0  0  0  0
  5 10  4  0  0  0  0
 10 11  2  0  0  0  0
  9 12  1  0  0  0  0
 12 13  1  0  0  0  0
 13 14  1  0  0  0  0
 14 15  1  0  0  0  0
 15 16  1  0  0  0  0
 16 17  1  0  0  0  0
 17 18  1  0  0  0  0
 18 19  4  0  0  0  0
 19 20  4  0  0  0  0
 20 21  4  0  0  0  0
 21 22  1  0  0  0  0
 21 23  4  0  0  0  0
 23 24  4  0  0  0  0
 18 24  4  0  0  0  0
 24 25  1  0  0  0  0
 25 26  1  0  0  0  0
 25 27  1  0  0  0  0
 25 28  1  0  0  0  0
 14 29  1  0  0  0  0
  8 29  1  0  0  0  0
 29 30  2  0  0  0  0
  4 31  4  0  0  0  0
 31 32  4  0  0  0  0
  2 32  4  0  0  0  0
M  END
>  <CdId>
532

>  <Mol Weight>
450.394

>  <Formula>
C21H18F4N4O3

>  <Molecule ChEMBL ID>
CHEMBL3127905

>  <Molecule Max Phase>
None

>  <Molecular Weight>
450.39

>  <#RO5 Violations>
0

>  <AlogP>
3.04

>  <Compound Key>
50

>  <Standard Type>
IC50

>  <Standard Relation>
'='

>  <Standard Value>
19000.0

>  <Standard Units>
nM

$$$$

  Mrv2114 03112311372D          

 49 54  0  0  1  0            999 V2000
   -2.2133   -2.3931    0.0000 C   0  0  0  0  0  0  0  0  0  0  0  0
   -1.4063   -2.2216    0.0000 O   0  0  0  0  0  0  0  0  0  0  0  0
   -1.1514   -1.4370    0.0000 C   0  0  0  0  0  0  0  0  0  0  0  0
   -1.7034   -0.8239    0.0000 N   0  0  0  0  0  0  0  0  0  0  0  0
   -1.4485   -0.0392    0.0000 C   0  0  0  0  0  0  0  0  0  0  0  0
   -0.6415    0.1323    0.0000 C   0  0  0  0  0  0  0  0  0  0  0  0
   -0.3866    0.9169    0.0000 C   0  0  0  0  0  0  0  0  0  0  0  0
   -0.9386    1.5300    0.0000 C   0  0  0  0  0  0  0  0  0  0  0  0
   -1.7456    1.3585    0.0000 C   0  0  0  0  0  0  0  0  0  0  0  0
   -0.6836    2.3146    0.0000 C   0  0  0  0  0  0  0  0  0  0  0  0
    0.1233    2.4861    0.0000 C   0  0  0  0  0  0  0  0  0  0  0  0
    0.3783    3.2708    0.0000 C   0  0  0  0  0  0  0  0  0  0  0  0
    1.1852    3.4423    0.0000 O   0  0  0  0  0  0  0  0  0  0  0  0
   -0.1738    3.8839    0.0000 O   0  0  0  0  0  0  0  0  0  0  0  0
    0.6754    1.8731    0.0000 C   0  0  0  0  0  0  0  0  0  0  0  0
    0.4204    1.0884    0.0000 C   0  0  0  0  0  0  0  0  0  0  0  0
    0.9725    0.4753    0.0000 C   0  0  0  0  0  0  0  0  0  0  0  0
   -0.0895   -0.4808    0.0000 C   0  0  0  0  0  0  0  0  0  0  0  0
   -0.3444   -1.2654    0.0000 C   0  0  0  0  0  0  0  0  0  0  0  0
    0.2076   -1.8785    0.0000 C   0  0  0  0  0  0  0  0  0  0  0  0
   -0.0473   -2.6631    0.0000 C   0  0  0  0  0  0  0  0  0  0  0  0
    0.5047   -3.2762    0.0000 C   0  0  0  0  0  0  0  0  0  0  0  0
    1.3117   -3.1047    0.0000 C   0  0  0  0  0  0  0  0  0  0  0  0
    1.8637   -3.7178    0.0000 C   0  0  0  0  0  0  0  0  0  0  0  0
    2.4158   -4.3309    0.0000 F   0  0  0  0  0  0  0  0  0  0  0  0
    1.2506   -4.2698    0.0000 F   0  0  0  0  0  0  0  0  0  0  0  0
    2.4768   -3.1658    0.0000 F   0  0  0  0  0  0  0  0  0  0  0  0
    1.5666   -2.3201    0.0000 C   0  0  0  0  0  0  0  0  0  0  0  0
    1.0146   -1.7070    0.0000 C   0  0  0  0  0  0  0  0  0  0  0  0
    1.2695   -0.9224    0.0000 C   0  0  2  0  0  0  0  0  0  0  0  0
    0.7846   -0.2549    0.0000 C   0  0  0  0  0  0  0  0  0  0  0  0
    1.2695    0.4125    0.0000 C   0  0  0  0  0  0  0  0  0  0  0  0
    2.0542    0.1576    0.0000 C   0  0  1  0  0  0  0  0  0  0  0  0
    2.8388    0.4125    0.0000 C   0  0  1  0  0  0  0  0  0  0  0  0
    3.0937    1.1971    0.0000 C   0  0  0  0  0  0  0  0  0  0  0  0
    2.5417    1.8102    0.0000 C   0  0  0  0  0  0  0  0  0  0  0  0
    2.7966    2.5948    0.0000 C   0  0  0  0  0  0  0  0  0  0  0  0
    2.2446    3.2079    0.0000 F   0  0  0  0  0  0  0  0  0  0  0  0
    3.6036    2.7664    0.0000 C   0  0  0  0  0  0  0  0  0  0  0  0
    4.1556    2.1533    0.0000 C   0  0  0  0  0  0  0  0  0  0  0  0
    4.9626    2.3248    0.0000 C   0  0  0  0  0  0  0  0  0  0  0  0
    5.7696    2.4963    0.0000 F   0  0  0  0  0  0  0  0  0  0  0  0
    5.1341    1.5178    0.0000 F   0  0  0  0  0  0  0  0  0  0  0  0
    4.7911    3.1318    0.0000 F   0  0  0  0  0  0  0  0  0  0  0  0
    3.9007    1.3686    0.0000 C   0  0  0  0  0  0  0  0  0  0  0  0
    3.3237   -0.2549    0.0000 O   0  0  0  0  0  0  0  0  0  0  0  0
    2.8388   -0.9224    0.0000 C   0  0  0  0  0  0  0  0  0  0  0  0
    3.0937   -1.7070    0.0000 O   0  0  0  0  0  0  0  0  0  0  0  0
    2.0542   -0.6674    0.0000 N   0  0  0  0  0  0  0  0  0  0  0  0
  1  2  1  0  0  0  0
  2  3  1  0  0  0  0
  3  4  4  0  0  0  0
  4  5  4  0  0  0  0
  5  6  4  0  0  0  0
  6  7  1  0  0  0  0
  7  8  4  0  0  0  0
  8  9  1  0  0  0  0
  8 10  4  0  0  0  0
 10 11  4  0  0  0  0
 11 12  1  0  0  0  0
 12 13  2  0  0  0  0
 12 14  1  0  0  0  0
 11 15  4  0  0  0  0
 15 16  4  0  0  0  0
  7 16  4  0  0  0  0
 16 17  1  0  0  0  0
  6 18  4  0  0  0  0
 18 19  4  0  0  0  0
  3 19  4  0  0  0  0
 19 20  1  0  0  0  0
 20 21  4  0  0  0  0
 21 22  4  0  0  0  0
 22 23  4  0  0  0  0
 23 24  1  0  0  0  0
 24 25  1  0  0  0  0
 24 26  1  0  0  0  0
 24 27  1  0  0  0  0
 23 28  4  0  0  0  0
 28 29  4  0  0  0  0
 20 29  4  0  0  0  0
 30 29  1  6  0  0  0
 30 31  1  0  0  0  0
 31 32  1  0  0  0  0
 33 32  1  0  0  0  0
 33 34  1  0  0  0  0
 34 35  1  1  0  0  0
 35 36  4  0  0  0  0
 36 37  4  0  0  0  0
 37 38  1  0  0  0  0
 37 39  4  0  0  0  0
 39 40  4  0  0  0  0
 40 41  1  0  0  0  0
 41 42  1  0  0  0  0
 41 43  1  0  0  0  0
 41 44  1  0  0  0  0
 40 45  4  0  0  0  0
 35 45  4  0  0  0  0
 34 46  1  0  0  0  0
 46 47  1  0  0  0  0
 47 48  2  0  0  0  0
 47 49  1  0  0  0  0
 30 49  1  0  0  0  0
 33 49  1  1  0  0  0
M  END
>  <CdId>
533

>  <Mol Weight>
688.599

>  <Formula>
C35H27F7N2O5

>  <Molecule ChEMBL ID>
CHEMBL3657528

>  <Molecule Max Phase>
None

>  <Molecular Weight>
688.6

>  <#RO5 Violations>
2

>  <AlogP>
9.31

>  <Compound Key>
105

>  <Standard Type>
IC50

>  <Standard Relation>
'='

>  <Standard Value>
3000.0

>  <Standard Units>
nM

$$$$

  Mrv2114 03112311372D          

 31 33  0  0  0  0            999 V2000
   -1.4949   -8.4464    0.0000 C   0  0  0  0  0  0  0  0  0  0  0  0
   -0.7804   -8.8589    0.0000 O   0  0  0  0  0  0  0  0  0  0  0  0
   -0.7804   -9.6839    0.0000 C   0  0  0  0  0  0  0  0  0  0  0  0
   -1.4949  -10.0964    0.0000 O   0  0  0  0  0  0  0  0  0  0  0  0
   -0.0659  -10.0964    0.0000 N   0  0  0  0  0  0  0  0  0  0  0  0
    0.6485   -9.6839    0.0000 C   0  0  0  0  0  0  0  0  0  0  0  0
    0.6485   -8.8589    0.0000 C   0  0  0  0  0  0  0  0  0  0  0  0
   -0.0659   -8.4464    0.0000 O   0  0  0  0  0  0  0  0  0  0  0  0
    1.3630   -8.4464    0.0000 O   0  0  0  0  0  0  0  0  0  0  0  0
   -0.0659  -10.9214    0.0000 C   0  0  0  0  0  0  0  0  0  0  0  0
    0.6485  -11.3339    0.0000 C   0  0  0  0  0  0  0  0  0  0  0  0
    1.3630  -10.9214    0.0000 C   0  0  0  0  0  0  0  0  0  0  0  0
    2.0775  -11.3339    0.0000 C   0  0  0  0  0  0  0  0  0  0  0  0
    2.0775  -12.1589    0.0000 C   0  0  0  0  0  0  0  0  0  0  0  0
    1.3630  -12.5714    0.0000 C   0  0  0  0  0  0  0  0  0  0  0  0
    1.3630  -13.3964    0.0000 O   0  0  0  0  0  0  0  0  0  0  0  0
    2.0775  -13.8089    0.0000 C   0  0  0  0  0  0  0  0  0  0  0  0
    2.0775  -14.6339    0.0000 C   0  0  0  0  0  0  0  0  0  0  0  0
    2.7449  -15.1189    0.0000 N   0  0  0  0  0  0  0  0  0  0  0  0
    2.4900  -15.9035    0.0000 C   0  0  0  0  0  0  0  0  0  0  0  0
    2.9749  -16.5709    0.0000 C   0  0  0  0  0  0  0  0  0  0  0  0
    3.7954  -16.4847    0.0000 C   0  0  0  0  0  0  0  0  0  0  0  0
    4.2803  -17.1521    0.0000 C   0  0  0  0  0  0  0  0  0  0  0  0
    3.9447  -17.9058    0.0000 C   0  0  0  0  0  0  0  0  0  0  0  0
    4.4297  -18.5732    0.0000 Cl  0  0  0  0  0  0  0  0  0  0  0  0
    3.1243  -17.9920    0.0000 C   0  0  0  0  0  0  0  0  0  0  0  0
    2.6393  -17.3246    0.0000 C   0  0  0  0  0  0  0  0  0  0  0  0
    1.6650  -15.9035    0.0000 O   0  0  0  0  0  0  0  0  0  0  0  0
    1.4100  -15.1189    0.0000 C   0  0  0  0  0  0  0  0  0  0  0  0
    0.6254  -14.8639    0.0000 C   0  0  0  0  0  0  0  0  0  0  0  0
    0.6485  -12.1589    0.0000 C   0  0  0  0  0  0  0  0  0  0  0  0
  1  2  1  0  0  0  0
  2  3  1  0  0  0  0
  3  4  2  0  0  0  0
  3  5  1  0  0  0  0
  5  6  1  0  0  0  0
  6  7  1  0  0  0  0
  7  8  2  0  0  0  0
  7  9  1  0  0  0  0
  5 10  1  0  0  0  0
 10 11  1  0  0  0  0
 11 12  4  0  0  0  0
 12 13  4  0  0  0  0
 13 14  4  0  0  0  0
 14 15  4  0  0  0  0
 15 16  1  0  0  0  0
 16 17  1  0  0  0  0
 17 18  1  0  0  0  0
 18 19  4  0  0  0  0
 19 20  4  0  0  0  0
 20 21  1  0  0  0  0
 21 22  4  0  0  0  0
 22 23  4  0  0  0  0
 23 24  4  0  0  0  0
 24 25  1  0  0  0  0
 24 26  4  0  0  0  0
 26 27  4  0  0  0  0
 21 27  4  0  0  0  0
 20 28  4  0  0  0  0
 28 29  4  0  0  0  0
 18 29  4  0  0  0  0
 29 30  1  0  0  0  0
 15 31  4  0  0  0  0
 11 31  4  0  0  0  0
M  END
>  <CdId>
534

>  <Mol Weight>
444.87

>  <Formula>
C22H21ClN2O6

>  <Molecule ChEMBL ID>
CHEMBL1089501

>  <Molecule Max Phase>
None

>  <Molecular Weight>
444.87

>  <#RO5 Violations>
0

>  <AlogP>
4.54

>  <Compound Key>
2, BMS-687453

>  <Standard Type>
IC50

>  <Standard Relation>
'>'

>  <Standard Value>
40000.0

>  <Standard Units>
nM

$$$$

  Mrv2114 03112311372D          

 36 39  0  0  1  0            999 V2000
    0.7145   -0.4125    0.0000 C   0  0  0  0  0  0  0  0  0  0  0  0
    0.7145   -1.2375    0.0000 C   0  0  0  0  0  0  0  0  0  0  0  0
    1.3819   -1.7224    0.0000 C   0  0  0  0  0  0  0  0  0  0  0  0
    2.1665   -1.4675    0.0000 C   0  0  0  0  0  0  0  0  0  0  0  0
    2.3381   -0.6605    0.0000 O   0  0  0  0  0  0  0  0  0  0  0  0
    2.7796   -2.0195    0.0000 N   0  0  0  0  0  0  0  0  0  0  0  0
    3.5642   -1.7646    0.0000 C   0  0  0  0  0  0  0  0  0  0  0  0
    3.8192   -0.9800    0.0000 C   0  0  0  0  0  0  0  0  0  0  0  0
    4.6442   -0.9800    0.0000 N   0  0  0  0  0  0  0  0  0  0  0  0
    4.8991   -1.7646    0.0000 N   0  0  0  0  0  0  0  0  0  0  0  0
    5.6837   -2.0195    0.0000 C   0  0  2  0  0  0  0  0  0  0  0  0
    5.8553   -2.8265    0.0000 C   0  0  0  0  0  0  0  0  0  0  0  0
    6.2968   -1.4675    0.0000 C   0  0  0  0  0  0  0  0  0  0  0  0
    6.1253   -0.6605    0.0000 C   0  0  0  0  0  0  0  0  0  0  0  0
    6.7384   -0.1085    0.0000 C   0  0  0  0  0  0  0  0  0  0  0  0
    7.5230   -0.3634    0.0000 C   0  0  0  0  0  0  0  0  0  0  0  0
    8.1361    0.1886    0.0000 C   0  0  0  0  0  0  0  0  0  0  0  0
    8.7492    0.7406    0.0000 F   0  0  0  0  0  0  0  0  0  0  0  0
    7.5841    0.8017    0.0000 F   0  0  0  0  0  0  0  0  0  0  0  0
    8.6882   -0.4245    0.0000 F   0  0  0  0  0  0  0  0  0  0  0  0
    7.6946   -1.1704    0.0000 C   0  0  0  0  0  0  0  0  0  0  0  0
    7.0815   -1.7224    0.0000 C   0  0  0  0  0  0  0  0  0  0  0  0
    7.2530   -2.5294    0.0000 C   0  0  0  0  0  0  0  0  0  0  0  0
    7.4245   -3.3364    0.0000 F   0  0  0  0  0  0  0  0  0  0  0  0
    6.4460   -2.7009    0.0000 F   0  0  0  0  0  0  0  0  0  0  0  0
    8.0600   -2.3579    0.0000 F   0  0  0  0  0  0  0  0  0  0  0  0
    4.2317   -2.2495    0.0000 C   0  0  0  0  0  0  0  0  0  0  0  0
    1.1270   -2.5070    0.0000 N   0  0  0  0  0  0  0  0  0  0  0  0
    0.3020   -2.5070    0.0000 O   0  0  0  0  0  0  0  0  0  0  0  0
    0.0470   -1.7224    0.0000 C   0  0  0  0  0  0  0  0  0  0  0  0
   -0.7376   -1.4675    0.0000 C   0  0  0  0  0  0  0  0  0  0  0  0
   -1.3507   -2.0195    0.0000 C   0  0  0  0  0  0  0  0  0  0  0  0
   -2.1353   -1.7646    0.0000 C   0  0  0  0  0  0  0  0  0  0  0  0
   -2.3068   -0.9576    0.0000 C   0  0  0  0  0  0  0  0  0  0  0  0
   -1.6937   -0.4056    0.0000 C   0  0  0  0  0  0  0  0  0  0  0  0
   -0.9091   -0.6605    0.0000 N   0  0  0  0  0  0  0  0  0  0  0  0
  1  2  1  0  0  0  0
  2  3  4  0  0  0  0
  3  4  1  0  0  0  0
  4  5  2  0  0  0  0
  4  6  1  0  0  0  0
  6  7  1  0  0  0  0
  7  8  4  0  0  0  0
  8  9  4  0  0  0  0
  9 10  4  0  0  0  0
 11 10  1  0  0  0  0
 11 12  1  1  0  0  0
 11 13  1  0  0  0  0
 13 14  4  0  0  0  0
 14 15  4  0  0  0  0
 15 16  4  0  0  0  0
 16 17  1  0  0  0  0
 17 18  1  0  0  0  0
 17 19  1  0  0  0  0
 17 20  1  0  0  0  0
 16 21  4  0  0  0  0
 21 22  4  0  0  0  0
 13 22  4  0  0  0  0
 22 23  1  0  0  0  0
 23 24  1  0  0  0  0
 23 25  1  0  0  0  0
 23 26  1  0  0  0  0
 10 27  4  0  0  0  0
  7 27  4  0  0  0  0
  3 28  4  0  0  0  0
 28 29  4  0  0  0  0
 29 30  4  0  0  0  0
  2 30  4  0  0  0  0
 30 31  1  0  0  0  0
 31 32  4  0  0  0  0
 32 33  4  0  0  0  0
 33 34  4  0  0  0  0
 34 35  4  0  0  0  0
 35 36  4  0  0  0  0
 31 36  4  0  0  0  0
M  END
>  <CdId>
535

>  <Mol Weight>
509.412

>  <Formula>
C23H17F6N5O2

>  <Molecule ChEMBL ID>
CHEMBL5086248

>  <Molecule Max Phase>
None

>  <Molecular Weight>
509.41

>  <#RO5 Violations>
2

>  <AlogP>
6.14

>  <Compound Key>
Compound 154

>  <Standard Type>
IC50

>  <Standard Relation>
'='

>  <Standard Value>
10750.0

>  <Standard Units>
nM

$$$$

  Mrv2114 03112311372D          

 35 38  0  0  1  0            999 V2000
   -0.0303   -3.2241    0.0000 C   0  0  0  0  0  0  0  0  0  0  0  0
   -0.7448   -3.6366    0.0000 C   0  0  2  0  0  0  0  0  0  0  0  0
   -1.4593   -3.2241    0.0000 C   0  0  0  0  0  0  0  0  0  0  0  0
   -2.1738   -3.6366    0.0000 C   0  0  0  0  0  0  0  0  0  0  0  0
   -2.8882   -3.2241    0.0000 C   0  0  0  0  0  0  0  0  0  0  0  0
   -2.8882   -2.3991    0.0000 C   0  0  0  0  0  0  0  0  0  0  0  0
   -3.6027   -1.9866    0.0000 C   0  0  0  0  0  0  0  0  0  0  0  0
   -4.3172   -1.5741    0.0000 F   0  0  0  0  0  0  0  0  0  0  0  0
   -4.0152   -2.7010    0.0000 F   0  0  0  0  0  0  0  0  0  0  0  0
   -3.1902   -1.2721    0.0000 F   0  0  0  0  0  0  0  0  0  0  0  0
   -2.1738   -1.9866    0.0000 C   0  0  0  0  0  0  0  0  0  0  0  0
   -1.4593   -2.3991    0.0000 C   0  0  0  0  0  0  0  0  0  0  0  0
   -0.7448   -1.9866    0.0000 C   0  0  0  0  0  0  0  0  0  0  0  0
   -0.0303   -1.5741    0.0000 F   0  0  0  0  0  0  0  0  0  0  0  0
   -0.3323   -2.7010    0.0000 F   0  0  0  0  0  0  0  0  0  0  0  0
   -1.1573   -1.2721    0.0000 F   0  0  0  0  0  0  0  0  0  0  0  0
   -0.7448   -4.4616    0.0000 N   0  0  0  0  0  0  0  0  0  0  0  0
   -0.0774   -4.9465    0.0000 C   0  0  0  0  0  0  0  0  0  0  0  0
   -0.3323   -5.7311    0.0000 C   0  0  0  0  0  0  0  0  0  0  0  0
    0.1526   -6.3986    0.0000 N   0  0  0  0  0  0  0  0  0  0  0  0
    0.9731   -6.3123    0.0000 C   0  0  0  0  0  0  0  0  0  0  0  0
    1.3086   -5.5586    0.0000 O   0  0  0  0  0  0  0  0  0  0  0  0
    1.4580   -6.9798    0.0000 C   0  0  0  0  0  0  0  0  0  0  0  0
    2.2830   -6.9798    0.0000 C   0  0  0  0  0  0  0  0  0  0  0  0
    2.5379   -7.7644    0.0000 N   0  0  0  0  0  0  0  0  0  0  0  0
    3.3226   -8.0193    0.0000 C   0  0  0  0  0  0  0  0  0  0  0  0
    3.9357   -7.4673    0.0000 C   0  0  0  0  0  0  0  0  0  0  0  0
    4.7203   -7.7222    0.0000 C   0  0  0  0  0  0  0  0  0  0  0  0
    4.8918   -8.5292    0.0000 C   0  0  0  0  0  0  0  0  0  0  0  0
    4.2787   -9.0812    0.0000 C   0  0  0  0  0  0  0  0  0  0  0  0
    3.4941   -8.8263    0.0000 N   0  0  0  0  0  0  0  0  0  0  0  0
    1.8705   -8.2493    0.0000 N   0  0  0  0  0  0  0  0  0  0  0  0
    1.2031   -7.7644    0.0000 N   0  0  0  0  0  0  0  0  0  0  0  0
   -1.1573   -5.7311    0.0000 C   0  0  0  0  0  0  0  0  0  0  0  0
   -1.4123   -4.9465    0.0000 N   0  0  0  0  0  0  0  0  0  0  0  0
  2  1  1  1  0  0  0
  2  3  1  0  0  0  0
  3  4  4  0  0  0  0
  4  5  4  0  0  0  0
  5  6  4  0  0  0  0
  6  7  1  0  0  0  0
  7  8  1  0  0  0  0
  7  9  1  0  0  0  0
  7 10  1  0  0  0  0
  6 11  4  0  0  0  0
 11 12  4  0  0  0  0
  3 12  4  0  0  0  0
 12 13  1  0  0  0  0
 13 14  1  0  0  0  0
 13 15  1  0  0  0  0
 13 16  1  0  0  0  0
  2 17  1  0  0  0  0
 17 18  4  0  0  0  0
 18 19  4  0  0  0  0
 19 20  1  0  0  0  0
 20 21  1  0  0  0  0
 21 22  2  0  0  0  0
 21 23  1  0  0  0  0
 23 24  4  0  0  0  0
 24 25  4  0  0  0  0
 25 26  1  0  0  0  0
 26 27  4  0  0  0  0
 27 28  4  0  0  0  0
 28 29  4  0  0  0  0
 29 30  4  0  0  0  0
 30 31  4  0  0  0  0
 26 31  4  0  0  0  0
 25 32  4  0  0  0  0
 32 33  4  0  0  0  0
 23 33  4  0  0  0  0
 19 34  4  0  0  0  0
 34 35  4  0  0  0  0
 17 35  4  0  0  0  0
M  END
>  <CdId>
536

>  <Mol Weight>
495.389

>  <Formula>
C21H15F6N7O

>  <Molecule ChEMBL ID>
CHEMBL5091548

>  <Molecule Max Phase>
None

>  <Molecular Weight>
495.39

>  <#RO5 Violations>
0

>  <AlogP>
4.76

>  <Compound Key>
Compound 121

>  <Standard Type>
IC50

>  <Standard Relation>
'='

>  <Standard Value>
30500.0

>  <Standard Units>
nM

$$$$

  Mrv2114 03112311372D          

 44 49  0  0  1  0            999 V2000
   -0.7145   -7.0125    0.0000 C   0  0  0  0  0  0  0  0  0  0  0  0
   -0.7145   -6.1875    0.0000 N   0  0  0  0  0  0  0  0  0  0  0  0
   -1.4289   -5.7750    0.0000 C   0  0  1  0  0  0  0  0  0  0  0  0
   -2.1434   -6.1875    0.0000 C   0  0  0  0  0  0  0  0  0  0  0  0
   -1.4289   -4.9500    0.0000 C   0  0  0  0  0  0  0  0  0  0  0  0
   -0.7145   -4.5375    0.0000 O   0  0  0  0  0  0  0  0  0  0  0  0
   -2.1434   -4.5375    0.0000 N   0  0  0  0  0  0  0  0  0  0  0  0
   -2.1434   -3.7125    0.0000 C   0  0  0  0  0  0  0  0  0  0  0  0
   -2.8579   -3.3000    0.0000 C   0  0  0  0  0  0  0  0  0  0  0  0
   -2.8579   -2.4750    0.0000 C   0  0  0  0  0  0  0  0  0  0  0  0
   -2.1434   -2.0625    0.0000 C   0  0  0  0  0  0  0  0  0  0  0  0
   -2.1434   -1.2375    0.0000 C   0  0  0  0  0  0  0  0  0  0  0  0
   -2.8109   -0.7526    0.0000 C   0  0  0  0  0  0  0  0  0  0  0  0
   -3.5955   -1.0075    0.0000 C   0  0  0  0  0  0  0  0  0  0  0  0
   -3.7670   -1.8145    0.0000 C   0  0  0  0  0  0  0  0  0  0  0  0
   -4.5516   -2.0694    0.0000 C   0  0  0  0  0  0  0  0  0  0  0  0
   -5.1647   -1.5174    0.0000 C   0  0  0  0  0  0  0  0  0  0  0  0
   -5.9493   -1.7723    0.0000 O   0  0  0  0  0  0  0  0  0  0  0  0
   -6.5624   -1.2203    0.0000 C   0  0  0  0  0  0  0  0  0  0  0  0
   -4.9932   -0.7104    0.0000 N   0  0  0  0  0  0  0  0  0  0  0  0
   -4.2086   -0.4555    0.0000 C   0  0  0  0  0  0  0  0  0  0  0  0
   -2.5559    0.0320    0.0000 N   0  0  0  0  0  0  0  0  0  0  0  0
   -1.7309    0.0320    0.0000 C   0  0  0  0  0  0  0  0  0  0  0  0
   -1.1789    0.6451    0.0000 C   0  0  0  0  0  0  0  0  0  0  0  0
   -0.3719    0.4736    0.0000 C   0  0  0  0  0  0  0  0  0  0  0  0
    0.1801    1.0867    0.0000 C   0  0  0  0  0  0  0  0  0  0  0  0
   -0.1170   -0.3110    0.0000 C   0  0  0  0  0  0  0  0  0  0  0  0
   -0.6690   -0.9241    0.0000 C   0  0  0  0  0  0  0  0  0  0  0  0
   -1.4760   -0.7526    0.0000 N   0  0  0  0  0  0  0  0  0  0  0  0
   -1.4289   -2.4750    0.0000 C   0  0  0  0  0  0  0  0  0  0  0  0
   -0.7145   -2.0625    0.0000 C   0  0  0  0  0  0  0  0  0  0  0  0
    0.0000   -1.6500    0.0000 C   0  0  0  0  0  0  0  0  0  0  0  0
    0.7145   -1.2375    0.0000 C   0  0  0  0  0  0  0  0  0  0  0  0
    0.7145   -0.4125    0.0000 C   0  0  0  0  0  0  0  0  0  0  0  0
    1.4289    0.0000    0.0000 C   0  0  0  0  0  0  0  0  0  0  0  0
    2.1434   -0.4125    0.0000 C   0  0  0  0  0  0  0  0  0  0  0  0
    2.8579    0.0000    0.0000 C   0  0  0  0  0  0  0  0  0  0  0  0
    2.8579    0.8250    0.0000 C   0  0  0  0  0  0  0  0  0  0  0  0
    3.5724   -0.4125    0.0000 N   0  0  0  0  0  0  0  0  0  0  0  0
    3.5724   -1.2375    0.0000 C   0  0  0  0  0  0  0  0  0  0  0  0
    2.8579   -1.6500    0.0000 C   0  0  0  0  0  0  0  0  0  0  0  0
    2.1434   -1.2375    0.0000 C   0  0  0  0  0  0  0  0  0  0  0  0
    1.4289   -1.6500    0.0000 C   0  0  0  0  0  0  0  0  0  0  0  0
   -1.4289   -3.3000    0.0000 N   0  0  0  0  0  0  0  0  0  0  0  0
  1  2  1  0  0  0  0
  3  2  1  0  0  0  0
  3  4  1  1  0  0  0
  3  5  1  0  0  0  0
  5  6  2  0  0  0  0
  5  7  1  0  0  0  0
  7  8  1  0  0  0  0
  8  9  4  0  0  0  0
  9 10  4  0  0  0  0
 10 11  4  0  0  0  0
 11 12  1  0  0  0  0
 12 13  4  0  0  0  0
 13 14  1  0  0  0  0
 14 15  4  0  0  0  0
 15 16  4  0  0  0  0
 16 17  4  0  0  0  0
 17 18  1  0  0  0  0
 18 19  1  0  0  0  0
 17 20  4  0  0  0  0
 20 21  4  0  0  0  0
 14 21  4  0  0  0  0
 13 22  4  0  0  0  0
 22 23  4  0  0  0  0
 23 24  4  0  0  0  0
 24 25  4  0  0  0  0
 25 26  1  0  0  0  0
 25 27  4  0  0  0  0
 27 28  4  0  0  0  0
 28 29  4  0  0  0  0
 12 29  4  0  0  0  0
 23 29  4  0  0  0  0
 11 30  4  0  0  0  0
 30 31  1  0  0  0  0
 31 32  3  0  0  0  0
 32 33  1  0  0  0  0
 33 34  4  0  0  0  0
 34 35  4  0  0  0  0
 35 36  4  0  0  0  0
 36 37  4  0  0  0  0
 37 38  1  0  0  0  0
 37 39  4  0  0  0  0
 39 40  4  0  0  0  0
 40 41  4  0  0  0  0
 41 42  4  0  0  0  0
 36 42  4  0  0  0  0
 42 43  4  0  0  0  0
 33 43  4  0  0  0  0
 30 44  4  0  0  0  0
  8 44  4  0  0  0  0
M  END
>  <CdId>
537

>  <Mol Weight>
581.68

>  <Formula>
C35H31N7O2

>  <Molecule ChEMBL ID>
CHEMBL3964219

>  <Molecule Max Phase>
None

>  <Molecular Weight>
581.68

>  <#RO5 Violations>
2

>  <AlogP>
5.58

>  <Compound Key>
BDBM253999

>  <Standard Type>
IC50

>  <Standard Relation>
'='

>  <Standard Value>
15000.0

>  <Standard Units>
nM

$$$$

  Mrv2114 03112311372D          

 27 29  0  0  0  0            999 V2000
   -1.0778   -2.7856    0.0000 C   0  0  0  0  0  0  0  0  0  0  0  0
   -0.9063   -3.5926    0.0000 C   0  0  0  0  0  0  0  0  0  0  0  0
   -0.1526   -3.9282    0.0000 C   0  0  0  0  0  0  0  0  0  0  0  0
    0.5619   -3.5157    0.0000 C   0  0  0  0  0  0  0  0  0  0  0  0
    1.2763   -3.9282    0.0000 C   0  0  0  0  0  0  0  0  0  0  0  0
    1.9908   -3.5157    0.0000 C   0  0  0  0  0  0  0  0  0  0  0  0
    1.9908   -2.6907    0.0000 O   0  0  0  0  0  0  0  0  0  0  0  0
    2.7053   -3.9282    0.0000 N   0  0  0  0  0  0  0  0  0  0  0  0
    3.4197   -3.5157    0.0000 C   0  0  0  0  0  0  0  0  0  0  0  0
    3.4197   -2.6907    0.0000 C   0  0  0  0  0  0  0  0  0  0  0  0
    4.1342   -2.2782    0.0000 C   0  0  0  0  0  0  0  0  0  0  0  0
    4.8487   -2.6907    0.0000 C   0  0  0  0  0  0  0  0  0  0  0  0
    4.8487   -3.5157    0.0000 C   0  0  0  0  0  0  0  0  0  0  0  0
    4.1342   -3.9282    0.0000 C   0  0  0  0  0  0  0  0  0  0  0  0
    4.1342   -4.7532    0.0000 C   0  0  0  0  0  0  0  0  0  0  0  0
    3.4197   -5.1657    0.0000 O   0  0  0  0  0  0  0  0  0  0  0  0
    4.8487   -5.1657    0.0000 O   0  0  0  0  0  0  0  0  0  0  0  0
   -0.2388   -4.7486    0.0000 C   0  0  0  0  0  0  0  0  0  0  0  0
   -1.0458   -4.9202    0.0000 N   0  0  0  0  0  0  0  0  0  0  0  0
   -1.4583   -4.2057    0.0000 N   0  0  0  0  0  0  0  0  0  0  0  0
   -2.2788   -4.1195    0.0000 C   0  0  0  0  0  0  0  0  0  0  0  0
   -2.7637   -4.7869    0.0000 C   0  0  0  0  0  0  0  0  0  0  0  0
   -3.5842   -4.7007    0.0000 C   0  0  0  0  0  0  0  0  0  0  0  0
   -3.9198   -3.9470    0.0000 C   0  0  0  0  0  0  0  0  0  0  0  0
   -4.7402   -3.8608    0.0000 O   0  0  0  0  0  0  0  0  0  0  0  0
   -3.4348   -3.2795    0.0000 C   0  0  0  0  0  0  0  0  0  0  0  0
   -2.6144   -3.3658    0.0000 C   0  0  0  0  0  0  0  0  0  0  0  0
  1  2  1  0  0  0  0
  2  3  4  0  0  0  0
  3  4  1  0  0  0  0
  4  5  1  0  0  0  0
  5  6  1  0  0  0  0
  6  7  2  0  0  0  0
  6  8  1  0  0  0  0
  8  9  1  0  0  0  0
  9 10  4  0  0  0  0
 10 11  4  0  0  0  0
 11 12  4  0  0  0  0
 12 13  4  0  0  0  0
 13 14  4  0  0  0  0
  9 14  4  0  0  0  0
 14 15  1  0  0  0  0
 15 16  2  0  0  0  0
 15 17  1  0  0  0  0
  3 18  4  0  0  0  0
 18 19  4  0  0  0  0
 19 20  4  0  0  0  0
  2 20  4  0  0  0  0
 20 21  1  0  0  0  0
 21 22  4  0  0  0  0
 22 23  4  0  0  0  0
 23 24  4  0  0  0  0
 24 25  1  0  0  0  0
 24 26  4  0  0  0  0
 26 27  4  0  0  0  0
 21 27  4  0  0  0  0
M  END
>  <CdId>
538

>  <Mol Weight>
365.389

>  <Formula>
C20H19N3O4

>  <Molecule ChEMBL ID>
CHEMBL236163

>  <Molecule Max Phase>
None

>  <Molecular Weight>
365.39

>  <#RO5 Violations>
0

>  <AlogP>
3.16

>  <Compound Key>
18

>  <Standard Type>
IC50

>  <Standard Relation>
'='

>  <Standard Value>
28000.0

>  <Standard Units>
nM

$$$$

  Mrv2114 03112311372D          

 28 30  0  0  1  0            999 V2000
   -1.0778   -2.7856    0.0000 C   0  0  0  0  0  0  0  0  0  0  0  0
   -0.9063   -3.5926    0.0000 C   0  0  0  0  0  0  0  0  0  0  0  0
   -0.1526   -3.9282    0.0000 C   0  0  0  0  0  0  0  0  0  0  0  0
    0.5619   -3.5157    0.0000 C   0  0  0  0  0  0  0  0  0  0  0  0
    1.2763   -3.9282    0.0000 C   0  0  1  0  0  0  0  0  0  0  0  0
    1.2763   -4.7532    0.0000 C   0  0  0  0  0  0  0  0  0  0  0  0
    1.9908   -3.5157    0.0000 C   0  0  0  0  0  0  0  0  0  0  0  0
    1.9908   -2.6907    0.0000 O   0  0  0  0  0  0  0  0  0  0  0  0
    2.7053   -3.9282    0.0000 N   0  0  0  0  0  0  0  0  0  0  0  0
    3.4197   -3.5157    0.0000 C   0  0  0  0  0  0  0  0  0  0  0  0
    4.1342   -3.9282    0.0000 C   0  0  0  0  0  0  0  0  0  0  0  0
    4.1342   -4.7532    0.0000 C   0  0  0  0  0  0  0  0  0  0  0  0
    4.8487   -5.1657    0.0000 O   0  0  0  0  0  0  0  0  0  0  0  0
    3.4197   -5.1657    0.0000 O   0  0  0  0  0  0  0  0  0  0  0  0
    4.8487   -3.5157    0.0000 C   0  0  0  0  0  0  0  0  0  0  0  0
    4.8487   -2.6907    0.0000 C   0  0  0  0  0  0  0  0  0  0  0  0
    4.1342   -2.2782    0.0000 C   0  0  0  0  0  0  0  0  0  0  0  0
    3.4197   -2.6907    0.0000 C   0  0  0  0  0  0  0  0  0  0  0  0
   -0.2388   -4.7486    0.0000 C   0  0  0  0  0  0  0  0  0  0  0  0
   -1.0458   -4.9202    0.0000 N   0  0  0  0  0  0  0  0  0  0  0  0
   -1.4583   -4.2057    0.0000 N   0  0  0  0  0  0  0  0  0  0  0  0
   -2.2788   -4.1195    0.0000 C   0  0  0  0  0  0  0  0  0  0  0  0
   -2.7637   -4.7869    0.0000 C   0  0  0  0  0  0  0  0  0  0  0  0
   -3.5842   -4.7007    0.0000 C   0  0  0  0  0  0  0  0  0  0  0  0
   -3.9198   -3.9470    0.0000 C   0  0  0  0  0  0  0  0  0  0  0  0
   -4.7402   -3.8608    0.0000 O   0  0  0  0  0  0  0  0  0  0  0  0
   -3.4348   -3.2795    0.0000 C   0  0  0  0  0  0  0  0  0  0  0  0
   -2.6144   -3.3658    0.0000 C   0  0  0  0  0  0  0  0  0  0  0  0
  1  2  1  0  0  0  0
  2  3  4  0  0  0  0
  3  4  1  0  0  0  0
  5  4  1  0  0  0  0
  5  6  1  6  0  0  0
  5  7  1  0  0  0  0
  7  8  2  0  0  0  0
  7  9  1  0  0  0  0
  9 10  1  0  0  0  0
 10 11  2  0  0  0  0
 11 12  1  0  0  0  0
 12 13  2  0  0  0  0
 12 14  1  0  0  0  0
 11 15  1  0  0  0  0
 15 16  1  0  0  0  0
 16 17  1  0  0  0  0
 17 18  1  0  0  0  0
 10 18  1  0  0  0  0
  3 19  4  0  0  0  0
 19 20  4  0  0  0  0
 20 21  4  0  0  0  0
  2 21  4  0  0  0  0
 21 22  1  0  0  0  0
 22 23  4  0  0  0  0
 23 24  4  0  0  0  0
 24 25  4  0  0  0  0
 25 26  1  0  0  0  0
 25 27  4  0  0  0  0
 27 28  4  0  0  0  0
 22 28  4  0  0  0  0
M  END
>  <CdId>
539

>  <Mol Weight>
383.448

>  <Formula>
C21H25N3O4

>  <Molecule ChEMBL ID>
CHEMBL483934

>  <Molecule Max Phase>
None

>  <Molecular Weight>
383.45

>  <#RO5 Violations>
0

>  <AlogP>
3.09

>  <Compound Key>
19

>  <Standard Type>
IC50

>  <Standard Relation>
'>'

>  <Standard Value>
100000.0

>  <Standard Units>
nM

$$$$

  Mrv2114 03112311372D          

 32 36  0  0  0  0            999 V2000
   -0.1712    0.7310    0.0000 N   0  0  0  0  0  0  0  0  0  0  0  0
   -0.5837    0.0165    0.0000 C   0  0  0  0  0  0  0  0  0  0  0  0
   -1.4087    0.0165    0.0000 N   0  0  0  0  0  0  0  0  0  0  0  0
   -1.8212   -0.6979    0.0000 C   0  0  0  0  0  0  0  0  0  0  0  0
   -1.4087   -1.4124    0.0000 C   0  0  0  0  0  0  0  0  0  0  0  0
   -0.5837   -1.4124    0.0000 C   0  0  0  0  0  0  0  0  0  0  0  0
   -0.1712   -0.6979    0.0000 C   0  0  0  0  0  0  0  0  0  0  0  0
    0.6538   -0.6979    0.0000 C   0  0  0  0  0  0  0  0  0  0  0  0
    1.1387   -0.0305    0.0000 N   0  0  0  0  0  0  0  0  0  0  0  0
    1.9233   -0.2854    0.0000 C   0  0  0  0  0  0  0  0  0  0  0  0
    2.6378    0.1271    0.0000 C   0  0  0  0  0  0  0  0  0  0  0  0
    3.3523   -0.2854    0.0000 C   0  0  0  0  0  0  0  0  0  0  0  0
    3.3523   -1.1104    0.0000 C   0  0  0  0  0  0  0  0  0  0  0  0
    2.6378   -1.5229    0.0000 N   0  0  0  0  0  0  0  0  0  0  0  0
    1.9233   -1.1104    0.0000 C   0  0  0  0  0  0  0  0  0  0  0  0
    1.1387   -1.3654    0.0000 N   0  0  0  0  0  0  0  0  0  0  0  0
    0.8838   -2.1500    0.0000 C   0  0  0  0  0  0  0  0  0  0  0  0
    1.4358   -2.7631    0.0000 C   0  0  0  0  0  0  0  0  0  0  0  0
    1.1809   -3.5477    0.0000 C   0  0  0  0  0  0  0  0  0  0  0  0
    0.3739   -3.7192    0.0000 C   0  0  0  0  0  0  0  0  0  0  0  0
    0.1190   -4.5039    0.0000 C   0  0  0  0  0  0  0  0  0  0  0  0
    0.6710   -5.1170    0.0000 C   0  0  0  0  0  0  0  0  0  0  0  0
    0.4161   -5.9016    0.0000 O   0  0  0  0  0  0  0  0  0  0  0  0
    1.4780   -4.9454    0.0000 N   0  0  0  0  0  0  0  0  0  0  0  0
    2.0300   -5.5585    0.0000 C   0  0  0  0  0  0  0  0  0  0  0  0
    2.8370   -5.3870    0.0000 C   0  0  0  0  0  0  0  0  0  0  0  0
    3.3890   -6.0001    0.0000 C   0  0  0  0  0  0  0  0  0  0  0  0
    3.1341   -6.7847    0.0000 C   0  0  0  0  0  0  0  0  0  0  0  0
    2.3271   -6.9562    0.0000 C   0  0  0  0  0  0  0  0  0  0  0  0
    1.7751   -6.3432    0.0000 C   0  0  0  0  0  0  0  0  0  0  0  0
   -0.1781   -3.1062    0.0000 C   0  0  0  0  0  0  0  0  0  0  0  0
    0.0768   -2.3215    0.0000 C   0  0  0  0  0  0  0  0  0  0  0  0
  1  2  1  0  0  0  0
  2  3  4  0  0  0  0
  3  4  4  0  0  0  0
  4  5  4  0  0  0  0
  5  6  4  0  0  0  0
  6  7  4  0  0  0  0
  2  7  4  0  0  0  0
  7  8  1  0  0  0  0
  8  9  4  0  0  0  0
  9 10  4  0  0  0  0
 10 11  4  0  0  0  0
 11 12  4  0  0  0  0
 12 13  4  0  0  0  0
 13 14  4  0  0  0  0
 14 15  4  0  0  0  0
 10 15  4  0  0  0  0
 15 16  4  0  0  0  0
  8 16  4  0  0  0  0
 16 17  1  0  0  0  0
 17 18  4  0  0  0  0
 18 19  4  0  0  0  0
 19 20  4  0  0  0  0
 20 21  1  0  0  0  0
 21 22  1  0  0  0  0
 22 23  2  0  0  0  0
 22 24  1  0  0  0  0
 24 25  1  0  0  0  0
 25 26  4  0  0  0  0
 26 27  4  0  0  0  0
 27 28  4  0  0  0  0
 28 29  4  0  0  0  0
 29 30  4  0  0  0  0
 25 30  4  0  0  0  0
 20 31  4  0  0  0  0
 31 32  4  0  0  0  0
 17 32  4  0  0  0  0
M  END
>  <CdId>
540

>  <Mol Weight>
420.476

>  <Formula>
C25H20N6O

>  <Molecule ChEMBL ID>
CHEMBL2177818

>  <Molecule Max Phase>
None

>  <Molecular Weight>
420.48

>  <#RO5 Violations>
0

>  <AlogP>
4.25

>  <Compound Key>
7

>  <Standard Type>
IC50

>  <Standard Relation>
'>'

>  <Standard Value>
10000.0

>  <Standard Units>
nM

$$$$

  Mrv2114 03112311372D          

 32 36  0  0  1  0            999 V2000
    0.0000    0.0000    0.0000 Cl  0  0  0  0  0  0  0  0  0  0  0  0
    5.6952   -1.8364    0.0000 O   0  0  0  0  0  0  0  0  0  0  0  0
    5.5043   -1.0337    0.0000 C   0  0  0  0  0  0  0  0  0  0  0  0
    4.7428   -0.7164    0.0000 N   0  0  0  0  0  0  0  0  0  0  0  0
    4.0384   -1.1460    0.0000 C   0  0  0  0  0  0  0  0  0  0  0  0
    3.3142   -0.7509    0.0000 C   0  0  1  0  0  0  0  0  0  0  0  0
    3.2944    0.0739    0.0000 O   0  0  0  0  0  0  0  0  0  0  0  0
    2.6099   -1.1804    0.0000 C   0  0  0  0  0  0  0  0  0  0  0  0
    1.8857   -0.7853    0.0000 O   0  0  0  0  0  0  0  0  0  0  0  0
    4.8092    0.1059    0.0000 C   0  0  0  0  0  0  0  0  0  0  0  0
    4.2426    0.7055    0.0000 C   0  0  0  0  0  0  0  0  0  0  0  0
    4.4785    1.4960    0.0000 C   0  0  0  0  0  0  0  0  0  0  0  0
    5.2812    1.6869    0.0000 C   0  0  0  0  0  0  0  0  0  0  0  0
    5.8478    1.0873    0.0000 C   0  0  0  0  0  0  0  0  0  0  0  0
    5.6118    0.2968    0.0000 C   0  0  0  0  0  0  0  0  0  0  0  0
    6.0414   -0.4075    0.0000 N   0  0  0  0  0  0  0  0  0  0  0  0
    6.8637   -0.4740    0.0000 C   0  0  0  0  0  0  0  0  0  0  0  0
    7.3324    0.2049    0.0000 C   0  0  0  0  0  0  0  0  0  0  0  0
    8.1548    0.1385    0.0000 C   0  0  0  0  0  0  0  0  0  0  0  0
    8.5084   -0.6069    0.0000 N   0  0  0  0  0  0  0  0  0  0  0  0
    9.3307   -0.6733    0.0000 C   0  0  0  0  0  0  0  0  0  0  0  0
    9.7994    0.0056    0.0000 C   0  0  1  0  0  0  0  0  0  0  0  0
   10.6217   -0.0609    0.0000 C   0  0  1  0  0  0  0  0  0  0  0  0
   11.0904    0.6181    0.0000 C   0  0  0  0  0  0  0  0  0  0  0  0
   10.7368    1.3634    0.0000 C   0  0  0  0  0  0  0  0  0  0  0  0
    9.9145    1.4299    0.0000 C   0  0  2  0  0  0  0  0  0  0  0  0
   10.0818    0.5961    0.0000 C   0  0  0  0  0  0  0  0  0  0  0  0
    9.4458    0.7510    0.0000 C   0  0  0  0  0  0  0  0  0  0  0  0
    8.7004    0.3974    0.0000 C   0  0  0  0  0  0  0  0  0  0  0  0
    8.7669    1.2197    0.0000 C   0  0  0  0  0  0  0  0  0  0  0  0
    8.0397   -1.2858    0.0000 C   0  0  0  0  0  0  0  0  0  0  0  0
    7.2173   -1.2194    0.0000 C   0  0  0  0  0  0  0  0  0  0  0  0
  2  3  2  0  0  0  0
  3  4  4  0  0  0  0
  4  5  1  0  0  0  0
  6  5  1  0  0  0  0
  6  7  1  6  0  0  0
  6  8  1  0  0  0  0
  8  9  1  0  0  0  0
  4 10  4  0  0  0  0
 10 11  4  0  0  0  0
 11 12  4  0  0  0  0
 12 13  4  0  0  0  0
 13 14  4  0  0  0  0
 14 15  4  0  0  0  0
 10 15  4  0  0  0  0
 15 16  4  0  0  0  0
  3 16  4  0  0  0  0
 16 17  1  0  0  0  0
 17 18  1  0  0  0  0
 18 19  1  0  0  0  0
 19 20  1  0  0  0  0
 20 21  1  0  0  0  0
 22 21  1  6  0  0  0
 22 23  1  0  0  0  0
 23 24  1  0  0  0  0
 24 25  1  0  0  0  0
 26 25  1  0  0  0  0
 26 27  1  1  0  0  0
 23 27  1  1  0  0  0
 26 28  1  0  0  0  0
 22 28  1  0  0  0  0
 28 29  1  0  0  0  0
 29 30  1  0  0  0  0
 28 30  1  0  0  0  0
 20 31  1  0  0  0  0
 31 32  1  0  0  0  0
 17 32  1  0  0  0  0
M  END
>  <CdId>
541

>  <Mol Weight>
462.03

>  <Formula>
C25H36ClN3O3

>  <Molecule ChEMBL ID>
CHEMBL564840

>  <Molecule Max Phase>
None

>  <Molecular Weight>
462.03

>  <#RO5 Violations>
0

>  <AlogP>
2.62

>  <Compound Key>
10

>  <Standard Type>
IC50

>  <Standard Relation>
'>'

>  <Standard Value>
100000.0

>  <Standard Units>
nM

$$$$

  Mrv2114 03112311372D          

 39 43  0  0  1  0            999 V2000
    4.7812    1.1104    0.0000 C   0  0  0  0  0  0  0  0  0  0  0  0
    4.7812    1.9354    0.0000 C   0  0  1  0  0  0  0  0  0  0  0  0
    4.0668    2.3479    0.0000 O   0  0  0  0  0  0  0  0  0  0  0  0
    3.3523    1.9354    0.0000 C   0  0  1  0  0  0  0  0  0  0  0  0
    3.3523    1.1104    0.0000 C   0  0  0  0  0  0  0  0  0  0  0  0
    2.6378    0.6979    0.0000 C   0  0  0  0  0  0  0  0  0  0  0  0
    1.9233    1.1104    0.0000 C   0  0  2  0  0  0  0  0  0  0  0  0
    1.1387    0.8555    0.0000 C   0  0  0  0  0  0  0  0  0  0  0  0
    0.6538    1.5229    0.0000 N   0  0  0  0  0  0  0  0  0  0  0  0
   -0.1712    1.5229    0.0000 C   0  0  0  0  0  0  0  0  0  0  0  0
   -0.6561    0.8555    0.0000 C   0  0  0  0  0  0  0  0  0  0  0  0
   -1.4407    1.1104    0.0000 C   0  0  0  0  0  0  0  0  0  0  0  0
   -2.1082    0.6255    0.0000 O   0  0  0  0  0  0  0  0  0  0  0  0
   -1.4407    1.9354    0.0000 C   0  0  0  0  0  0  0  0  0  0  0  0
   -0.6561    2.1904    0.0000 C   0  0  0  0  0  0  0  0  0  0  0  0
    1.1387    2.1904    0.0000 C   0  0  0  0  0  0  0  0  0  0  0  0
    1.9233    1.9354    0.0000 C   0  0  1  0  0  0  0  0  0  0  0  0
    2.6378    2.3479    0.0000 C   0  0  2  0  0  0  0  0  0  0  0  0
    2.6378    3.1729    0.0000 C   0  0  0  0  0  0  0  0  0  0  0  0
    1.9233    3.5854    0.0000 C   0  0  0  0  0  0  0  0  0  0  0  0
    1.9233    4.4104    0.0000 C   0  0  0  0  0  0  0  0  0  0  0  0
    2.6378    4.8229    0.0000 C   0  0  0  0  0  0  0  0  0  0  0  0
    2.6378    5.6479    0.0000 F   0  0  0  0  0  0  0  0  0  0  0  0
    3.3523    4.4104    0.0000 C   0  0  0  0  0  0  0  0  0  0  0  0
    3.3523    3.5854    0.0000 C   0  0  0  0  0  0  0  0  0  0  0  0
    5.4957    2.3479    0.0000 C   0  0  0  0  0  0  0  0  0  0  0  0
    5.4957    3.1729    0.0000 C   0  0  0  0  0  0  0  0  0  0  0  0
    6.2102    3.5854    0.0000 C   0  0  0  0  0  0  0  0  0  0  0  0
    6.2102    4.4104    0.0000 C   0  0  0  0  0  0  0  0  0  0  0  0
    6.2102    5.2354    0.0000 F   0  0  0  0  0  0  0  0  0  0  0  0
    7.0352    4.4104    0.0000 F   0  0  0  0  0  0  0  0  0  0  0  0
    5.3852    4.4104    0.0000 F   0  0  0  0  0  0  0  0  0  0  0  0
    6.9246    3.1729    0.0000 C   0  0  0  0  0  0  0  0  0  0  0  0
    6.9246    2.3479    0.0000 C   0  0  0  0  0  0  0  0  0  0  0  0
    7.6391    1.9354    0.0000 C   0  0  0  0  0  0  0  0  0  0  0  0
    8.3536    1.5229    0.0000 F   0  0  0  0  0  0  0  0  0  0  0  0
    7.2266    1.2210    0.0000 F   0  0  0  0  0  0  0  0  0  0  0  0
    8.0516    2.6499    0.0000 F   0  0  0  0  0  0  0  0  0  0  0  0
    6.2102    1.9354    0.0000 C   0  0  0  0  0  0  0  0  0  0  0  0
  2  1  1  1  0  0  0
  2  3  1  0  0  0  0
  4  3  1  1  0  0  0
  4  5  1  0  0  0  0
  5  6  1  0  0  0  0
  7  6  1  0  0  0  0
  7  8  1  6  0  0  0
  8  9  1  0  0  0  0
  9 10  1  0  0  0  0
 10 11  2  0  0  0  0
 11 12  1  0  0  0  0
 12 13  2  0  0  0  0
 12 14  1  0  0  0  0
 14 15  1  0  0  0  0
 10 15  1  0  0  0  0
  9 16  1  0  0  0  0
 17 16  1  1  0  0  0
 17  7  1  0  0  0  0
 17 18  1  0  0  0  0
 18  4  1  0  0  0  0
 18 19  1  6  0  0  0
 19 20  4  0  0  0  0
 20 21  4  0  0  0  0
 21 22  4  0  0  0  0
 22 23  1  0  0  0  0
 22 24  4  0  0  0  0
 24 25  4  0  0  0  0
 19 25  4  0  0  0  0
  2 26  1  0  0  0  0
 26 27  4  0  0  0  0
 27 28  4  0  0  0  0
 28 29  1  0  0  0  0
 29 30  1  0  0  0  0
 29 31  1  0  0  0  0
 29 32  1  0  0  0  0
 28 33  4  0  0  0  0
 33 34  4  0  0  0  0
 34 35  1  0  0  0  0
 35 36  1  0  0  0  0
 35 37  1  0  0  0  0
 35 38  1  0  0  0  0
 34 39  4  0  0  0  0
 26 39  4  0  0  0  0
M  END
>  <CdId>
542

>  <Mol Weight>
555.537

>  <Formula>
C29H28F7NO2

>  <Molecule ChEMBL ID>
CHEMBL447955

>  <Molecule Name>
SERLOPITANT

>  <Molecule Max Phase>
3

>  <Molecular Weight>
555.53

>  <#RO5 Violations>
2

>  <AlogP>
7.68

>  <Compound Key>
17

>  <Standard Type>
IC50

>  <Standard Relation>
'='

>  <Standard Value>
58000.0

>  <Standard Units>
nM

$$$$

  Mrv2114 03112311372D          

 23 21  0  0  0  0            999 V2000
    0.0000    0.0000    0.0000 Cl  0  0  0  0  0  0  0  0  0  0  0  0
    2.0036    0.0000    0.0000 Cl  0  0  0  0  0  0  0  0  0  0  0  0
    4.0071    0.0000    0.0000 Cl  0  0  0  0  0  0  0  0  0  0  0  0
    0.0000   -3.8945    0.0000 Cl  0  0  0  0  0  0  0  0  0  0  0  0
    5.6918   -1.6500    0.0000 N   0  0  0  0  0  0  0  0  0  0  0  0
    4.9774   -2.0625    0.0000 C   0  0  0  0  0  0  0  0  0  0  0  0
    4.9774   -2.8875    0.0000 C   0  0  0  0  0  0  0  0  0  0  0  0
    5.6448   -3.3724    0.0000 C   0  0  0  0  0  0  0  0  0  0  0  0
    5.3899   -4.1570    0.0000 C   0  0  0  0  0  0  0  0  0  0  0  0
    4.5649   -4.1570    0.0000 C   0  0  0  0  0  0  0  0  0  0  0  0
    4.0799   -4.8245    0.0000 C   0  0  0  0  0  0  0  0  0  0  0  0
    4.4155   -5.5782    0.0000 C   0  0  0  0  0  0  0  0  0  0  0  0
    3.9306   -6.2456    0.0000 N   0  0  0  0  0  0  0  0  0  0  0  0
    3.1101   -6.1594    0.0000 C   0  0  0  0  0  0  0  0  0  0  0  0
    2.7745   -5.4057    0.0000 C   0  0  0  0  0  0  0  0  0  0  0  0
    3.2595   -4.7382    0.0000 C   0  0  0  0  0  0  0  0  0  0  0  0
    2.9239   -3.9846    0.0000 C   0  0  0  0  0  0  0  0  0  0  0  0
    2.1034   -3.8983    0.0000 C   0  0  0  0  0  0  0  0  0  0  0  0
    1.7679   -3.1447    0.0000 N   0  0  0  0  0  0  0  0  0  0  0  0
    2.2528   -2.4772    0.0000 C   0  0  0  0  0  0  0  0  0  0  0  0
    3.0733   -2.5635    0.0000 N   0  0  0  0  0  0  0  0  0  0  0  0
    3.4088   -3.3171    0.0000 C   0  0  0  0  0  0  0  0  0  0  0  0
    4.3099   -3.3724    0.0000 O   0  0  0  0  0  0  0  0  0  0  0  0
  5  6  1  0  0  0  0
  6  7  1  0  0  0  0
  7  8  4  0  0  0  0
  8  9  4  0  0  0  0
  9 10  4  0  0  0  0
 10 11  1  0  0  0  0
 11 12  4  0  0  0  0
 12 13  4  0  0  0  0
 13 14  4  0  0  0  0
 14 15  4  0  0  0  0
 15 16  4  0  0  0  0
 11 16  4  0  0  0  0
 16 17  1  0  0  0  0
 17 18  4  0  0  0  0
 18 19  4  0  0  0  0
 19 20  4  0  0  0  0
 20 21  4  0  0  0  0
 21 22  4  0  0  0  0
 17 22  4  0  0  0  0
 10 23  4  0  0  0  0
  7 23  4  0  0  0  0
M  END
>  <CdId>
543

>  <Mol Weight>
398.11

>  <Formula>
C14H16Cl4N4O

>  <Molecule ChEMBL ID>
CHEMBL4168256

>  <Molecule Max Phase>
None

>  <Molecular Weight>
398.12

>  <#RO5 Violations>
0

>  <AlogP>
2.26

>  <Compound Key>
5q

>  <Standard Type>
IC50

>  <Standard Relation>
'>'

>  <Standard Value>
50000.0

>  <Standard Units>
nM

$$$$

  Mrv2114 03112311372D          

 24 26  0  0  0  0            999 V2000
    1.3222   -0.0616    0.0000 C   0  0  0  0  0  0  0  0  0  0  0  0
    1.3222   -0.8866    0.0000 C   0  0  0  0  0  0  0  0  0  0  0  0
    2.0367   -1.2991    0.0000 N   0  0  0  0  0  0  0  0  0  0  0  0
    2.0367   -2.1241    0.0000 C   0  0  0  0  0  0  0  0  0  0  0  0
    2.7041   -2.6090    0.0000 C   0  0  0  0  0  0  0  0  0  0  0  0
    2.4492   -3.3937    0.0000 C   0  0  0  0  0  0  0  0  0  0  0  0
    1.6242   -3.3937    0.0000 N   0  0  0  0  0  0  0  0  0  0  0  0
    1.3693   -2.6090    0.0000 N   0  0  0  0  0  0  0  0  0  0  0  0
    0.5846   -2.3541    0.0000 C   0  0  0  0  0  0  0  0  0  0  0  0
   -0.0284   -2.9061    0.0000 C   0  0  0  0  0  0  0  0  0  0  0  0
   -0.8131   -2.6512    0.0000 C   0  0  0  0  0  0  0  0  0  0  0  0
   -0.9846   -1.8442    0.0000 C   0  0  0  0  0  0  0  0  0  0  0  0
   -0.3715   -1.2922    0.0000 C   0  0  0  0  0  0  0  0  0  0  0  0
    0.4131   -1.5471    0.0000 C   0  0  0  0  0  0  0  0  0  0  0  0
    2.7512   -0.8866    0.0000 S   0  0  0  0  0  0  0  0  0  0  0  0
    3.1637   -1.6011    0.0000 O   0  0  0  0  0  0  0  0  0  0  0  0
    2.3387   -0.1721    0.0000 O   0  0  0  0  0  0  0  0  0  0  0  0
    3.4656   -0.4741    0.0000 C   0  0  0  0  0  0  0  0  0  0  0  0
    3.4656    0.3509    0.0000 C   0  0  0  0  0  0  0  0  0  0  0  0
    4.1801    0.7634    0.0000 C   0  0  0  0  0  0  0  0  0  0  0  0
    4.8946    0.3509    0.0000 C   0  0  0  0  0  0  0  0  0  0  0  0
    5.6091    0.7634    0.0000 N   0  0  0  0  0  0  0  0  0  0  0  0
    4.8946   -0.4741    0.0000 C   0  0  0  0  0  0  0  0  0  0  0  0
    4.1801   -0.8866    0.0000 C   0  0  0  0  0  0  0  0  0  0  0  0
  1  2  1  0  0  0  0
  2  3  1  0  0  0  0
  3  4  1  0  0  0  0
  4  5  4  0  0  0  0
  5  6  4  0  0  0  0
  6  7  4  0  0  0  0
  7  8  4  0  0  0  0
  4  8  4  0  0  0  0
  8  9  1  0  0  0  0
  9 10  4  0  0  0  0
 10 11  4  0  0  0  0
 11 12  4  0  0  0  0
 12 13  4  0  0  0  0
 13 14  4  0  0  0  0
  9 14  4  0  0  0  0
  3 15  1  0  0  0  0
 15 16  2  0  0  0  0
 15 17  2  0  0  0  0
 15 18  1  0  0  0  0
 18 19  4  0  0  0  0
 19 20  4  0  0  0  0
 20 21  4  0  0  0  0
 21 22  1  0  0  0  0
 21 23  4  0  0  0  0
 23 24  4  0  0  0  0
 18 24  4  0  0  0  0
M  END
>  <CdId>
544

>  <Mol Weight>
342.42

>  <Formula>
C17H18N4O2S

>  <Molecule ChEMBL ID>
CHEMBL330871

>  <Molecule Max Phase>
None

>  <Molecular Weight>
342.42

>  <#RO5 Violations>
0

>  <AlogP>
2.67

>  <Compound Key>
7

>  <Standard Type>
IC50

>  <Standard Relation>
'='

>  <Standard Value>
13000.0

>  <Standard Units>
nM

$$$$

  Mrv2114 03112311372D          

 29 32  0  0  0  0            999 V2000
    4.2868    1.6500    0.0000 N   0  0  0  0  0  0  0  0  0  0  0  0
    3.5724    1.2375    0.0000 C   0  0  0  0  0  0  0  0  0  0  0  0
    3.5724    0.4125    0.0000 C   0  0  0  0  0  0  0  0  0  0  0  0
    2.8579   -0.0000    0.0000 C   0  0  0  0  0  0  0  0  0  0  0  0
    2.1434    0.4125    0.0000 C   0  0  0  0  0  0  0  0  0  0  0  0
    1.4289   -0.0000    0.0000 S   0  0  0  0  0  0  0  0  0  0  0  0
    1.0164    0.7145    0.0000 O   0  0  0  0  0  0  0  0  0  0  0  0
    1.8414   -0.7145    0.0000 O   0  0  0  0  0  0  0  0  0  0  0  0
    0.7145   -0.4125    0.0000 N   0  0  0  0  0  0  0  0  0  0  0  0
    0.0000   -0.0000    0.0000 C   0  0  0  0  0  0  0  0  0  0  0  0
    0.0000    0.8250    0.0000 C   0  0  0  0  0  0  0  0  0  0  0  0
   -0.7145    1.2375    0.0000 C   0  0  0  0  0  0  0  0  0  0  0  0
   -0.7145    2.0625    0.0000 C   0  0  0  0  0  0  0  0  0  0  0  0
    0.0000    2.4750    0.0000 C   0  0  0  0  0  0  0  0  0  0  0  0
    0.7145    2.0625    0.0000 C   0  0  0  0  0  0  0  0  0  0  0  0
    0.7145    1.2375    0.0000 C   0  0  0  0  0  0  0  0  0  0  0  0
    0.7145   -1.2375    0.0000 C   0  0  0  0  0  0  0  0  0  0  0  0
    1.3819   -1.7224    0.0000 C   0  0  0  0  0  0  0  0  0  0  0  0
    1.1270   -2.5070    0.0000 C   0  0  0  0  0  0  0  0  0  0  0  0
    0.3020   -2.5070    0.0000 N   0  0  0  0  0  0  0  0  0  0  0  0
    0.0470   -1.7224    0.0000 N   0  0  0  0  0  0  0  0  0  0  0  0
   -0.7376   -1.4675    0.0000 C   0  0  0  0  0  0  0  0  0  0  0  0
   -1.3507   -2.0195    0.0000 C   0  0  0  0  0  0  0  0  0  0  0  0
   -2.1353   -1.7646    0.0000 C   0  0  0  0  0  0  0  0  0  0  0  0
   -2.3068   -0.9576    0.0000 C   0  0  0  0  0  0  0  0  0  0  0  0
   -1.6937   -0.4056    0.0000 C   0  0  0  0  0  0  0  0  0  0  0  0
   -0.9091   -0.6605    0.0000 C   0  0  0  0  0  0  0  0  0  0  0  0
    2.1434    1.2375    0.0000 C   0  0  0  0  0  0  0  0  0  0  0  0
    2.8579    1.6500    0.0000 C   0  0  0  0  0  0  0  0  0  0  0  0
  1  2  1  0  0  0  0
  2  3  4  0  0  0  0
  3  4  4  0  0  0  0
  4  5  4  0  0  0  0
  5  6  1  0  0  0  0
  6  7  2  0  0  0  0
  6  8  2  0  0  0  0
  6  9  1  0  0  0  0
  9 10  1  0  0  0  0
 10 11  1  0  0  0  0
 11 12  4  0  0  0  0
 12 13  4  0  0  0  0
 13 14  4  0  0  0  0
 14 15  4  0  0  0  0
 15 16  4  0  0  0  0
 11 16  4  0  0  0  0
  9 17  1  0  0  0  0
 17 18  4  0  0  0  0
 18 19  4  0  0  0  0
 19 20  4  0  0  0  0
 20 21  4  0  0  0  0
 17 21  4  0  0  0  0
 21 22  1  0  0  0  0
 22 23  4  0  0  0  0
 23 24  4  0  0  0  0
 24 25  4  0  0  0  0
 25 26  4  0  0  0  0
 26 27  4  0  0  0  0
 22 27  4  0  0  0  0
  5 28  4  0  0  0  0
 28 29  4  0  0  0  0
  2 29  4  0  0  0  0
M  END
>  <CdId>
545

>  <Mol Weight>
404.49

>  <Formula>
C22H20N4O2S

>  <Molecule ChEMBL ID>
CHEMBL120797

>  <Molecule Max Phase>
None

>  <Molecular Weight>
404.5

>  <#RO5 Violations>
0

>  <AlogP>
3.85

>  <Compound Key>
12

>  <Standard Type>
IC50

>  <Standard Relation>
'='

>  <Standard Value>
15000.0

>  <Standard Units>
nM

$$$$

  Mrv2114 03112311372D          

 30 33  0  0  0  0            999 V2000
    0.7145    2.8875    0.0000 C   0  0  0  0  0  0  0  0  0  0  0  0
    0.7145    2.0625    0.0000 C   0  0  0  0  0  0  0  0  0  0  0  0
    1.4289    1.6500    0.0000 C   0  0  0  0  0  0  0  0  0  0  0  0
    1.4289    0.8250    0.0000 C   0  0  0  0  0  0  0  0  0  0  0  0
    0.7145    0.4125    0.0000 C   0  0  0  0  0  0  0  0  0  0  0  0
    0.7145   -0.4125    0.0000 C   0  0  0  0  0  0  0  0  0  0  0  0
   -0.1105   -0.4125    0.0000 C   0  0  0  0  0  0  0  0  0  0  0  0
    1.5395   -0.4125    0.0000 O   0  0  0  0  0  0  0  0  0  0  0  0
    0.7145   -1.2375    0.0000 C   0  0  0  0  0  0  0  0  0  0  0  0
    1.3819   -1.7224    0.0000 N   0  0  0  0  0  0  0  0  0  0  0  0
    1.1270   -2.5070    0.0000 C   0  0  0  0  0  0  0  0  0  0  0  0
    1.6119   -3.1745    0.0000 N   0  0  0  0  0  0  0  0  0  0  0  0
    2.4324   -3.0882    0.0000 C   0  0  0  0  0  0  0  0  0  0  0  0
    2.9173   -3.7557    0.0000 C   0  0  0  0  0  0  0  0  0  0  0  0
    2.5817   -4.5094    0.0000 C   0  0  0  0  0  0  0  0  0  0  0  0
    3.0667   -5.1768    0.0000 N   0  0  0  0  0  0  0  0  0  0  0  0
    3.8871   -5.0906    0.0000 C   0  0  0  0  0  0  0  0  0  0  0  0
    4.2227   -4.3369    0.0000 O   0  0  0  0  0  0  0  0  0  0  0  0
    4.3721   -5.7580    0.0000 C   0  0  0  0  0  0  0  0  0  0  0  0
    5.1971   -5.7580    0.0000 C   0  0  0  0  0  0  0  0  0  0  0  0
    5.4520   -6.5426    0.0000 S   0  0  0  0  0  0  0  0  0  0  0  0
    4.7846   -7.0275    0.0000 C   0  0  0  0  0  0  0  0  0  0  0  0
    4.1171   -6.5426    0.0000 N   0  0  0  0  0  0  0  0  0  0  0  0
    1.7613   -4.5956    0.0000 C   0  0  0  0  0  0  0  0  0  0  0  0
    1.2763   -3.9282    0.0000 C   0  0  0  0  0  0  0  0  0  0  0  0
    0.4559   -4.0144    0.0000 O   0  0  0  0  0  0  0  0  0  0  0  0
    0.3020   -2.5070    0.0000 C   0  0  0  0  0  0  0  0  0  0  0  0
    0.0470   -1.7224    0.0000 N   0  0  0  0  0  0  0  0  0  0  0  0
    0.0000    0.8250    0.0000 C   0  0  0  0  0  0  0  0  0  0  0  0
    0.0000    1.6500    0.0000 C   0  0  0  0  0  0  0  0  0  0  0  0
  1  2  1  0  0  0  0
  2  3  4  0  0  0  0
  3  4  4  0  0  0  0
  4  5  4  0  0  0  0
  5  6  1  0  0  0  0
  6  7  1  0  0  0  0
  6  8  1  0  0  0  0
  6  9  1  0  0  0  0
  9 10  4  0  0  0  0
 10 11  4  0  0  0  0
 11 12  1  0  0  0  0
 12 13  4  0  0  0  0
 13 14  4  0  0  0  0
 14 15  4  0  0  0  0
 15 16  1  0  0  0  0
 16 17  1  0  0  0  0
 17 18  2  0  0  0  0
 17 19  1  0  0  0  0
 19 20  4  0  0  0  0
 20 21  4  0  0  0  0
 21 22  4  0  0  0  0
 22 23  4  0  0  0  0
 19 23  4  0  0  0  0
 15 24  4  0  0  0  0
 24 25  4  0  0  0  0
 12 25  4  0  0  0  0
 25 26  2  0  0  0  0
 11 27  4  0  0  0  0
 27 28  4  0  0  0  0
  9 28  4  0  0  0  0
  5 29  4  0  0  0  0
 29 30  4  0  0  0  0
  2 30  4  0  0  0  0
M  STY  1   1 DAT
M  SAL   1  1  28
M  SDT   1 MRV_IMPLICIT_H                                        
M  SDD   1     0.0000    0.0000    DR    ALL  0       0  
M  SED   1 IMPL_H1
M  END
>  <CdId>
546

>  <Mol Weight>
421.48

>  <Formula>
C21H19N5O3S

>  <Molecule ChEMBL ID>
CHEMBL3809367

>  <Molecule Max Phase>
None

>  <Molecular Weight>
421.48

>  <#RO5 Violations>
0

>  <AlogP>
2.83

>  <Compound Key>
26

>  <Standard Type>
IC50

>  <Standard Relation>
'='

>  <Standard Value>
18000.0

>  <Standard Units>
nM

$$$$

  Mrv2114 03112311372D          

 17 18  0  0  0  0            999 V2000
    4.7812    1.9354    0.0000 C   0  0  0  0  0  0  0  0  0  0  0  0
    4.0668    2.3479    0.0000 O   0  0  0  0  0  0  0  0  0  0  0  0
    3.3523    1.9354    0.0000 C   0  0  0  0  0  0  0  0  0  0  0  0
    3.3523    1.1104    0.0000 C   0  0  0  0  0  0  0  0  0  0  0  0
    2.6378    0.6979    0.0000 C   0  0  0  0  0  0  0  0  0  0  0  0
    1.9233    1.1104    0.0000 C   0  0  0  0  0  0  0  0  0  0  0  0
    1.1387    0.8555    0.0000 N   0  0  0  0  0  0  0  0  0  0  0  0
    0.6538    1.5229    0.0000 C   0  0  0  0  0  0  0  0  0  0  0  0
   -0.1712    1.5229    0.0000 S   0  0  0  0  0  0  0  0  0  0  0  0
   -0.5837    2.2374    0.0000 C   0  0  0  0  0  0  0  0  0  0  0  0
   -1.4087    2.2374    0.0000 C   0  0  0  0  0  0  0  0  0  0  0  0
   -2.2337    2.2374    0.0000 C   0  0  0  0  0  0  0  0  0  0  0  0
   -1.4087    3.0624    0.0000 C   0  0  0  0  0  0  0  0  0  0  0  0
   -1.4087    1.4124    0.0000 C   0  0  0  0  0  0  0  0  0  0  0  0
    1.1387    2.1904    0.0000 N   0  0  0  0  0  0  0  0  0  0  0  0
    1.9233    1.9354    0.0000 C   0  0  0  0  0  0  0  0  0  0  0  0
    2.6378    2.3479    0.0000 C   0  0  0  0  0  0  0  0  0  0  0  0
  1  2  1  0  0  0  0
  2  3  1  0  0  0  0
  3  4  4  0  0  0  0
  4  5  4  0  0  0  0
  5  6  4  0  0  0  0
  6  7  4  0  0  0  0
  7  8  4  0  0  0  0
  8  9  1  0  0  0  0
  9 10  1  0  0  0  0
 10 11  1  0  0  0  0
 11 12  1  0  0  0  0
 11 13  1  0  0  0  0
 11 14  1  0  0  0  0
  8 15  4  0  0  0  0
 15 16  4  0  0  0  0
  6 16  4  0  0  0  0
 16 17  4  0  0  0  0
  3 17  4  0  0  0  0
M  STY  1   1 DAT
M  SAL   1  1   7
M  SDT   1 MRV_IMPLICIT_H                                        
M  SDD   1     0.0000    0.0000    DR    ALL  0       0  
M  SED   1 IMPL_H1
M  END
>  <CdId>
547

>  <Mol Weight>
250.36

>  <Formula>
C13H18N2OS

>  <Molecule ChEMBL ID>
CHEMBL2018910

>  <Molecule Max Phase>
None

>  <Molecular Weight>
250.37

>  <#RO5 Violations>
0

>  <AlogP>
3.71

>  <Compound Key>
8

>  <Standard Type>
IC50

>  <Standard Relation>
'>'

>  <Standard Value>
50000.0

>  <Standard Units>
nM

$$$$

  Mrv2114 03112311372D          

 41 46  0  0  0  0            999 V2000
   -3.5724   -7.0125    0.0000 C   0  0  0  0  0  0  0  0  0  0  0  0
   -3.5724   -6.1875    0.0000 N   0  0  0  0  0  0  0  0  0  0  0  0
   -2.8579   -5.7750    0.0000 C   0  0  0  0  0  0  0  0  0  0  0  0
   -2.1434   -6.1875    0.0000 C   0  0  0  0  0  0  0  0  0  0  0  0
   -2.8579   -4.9500    0.0000 C   0  0  0  0  0  0  0  0  0  0  0  0
   -3.5724   -4.5375    0.0000 O   0  0  0  0  0  0  0  0  0  0  0  0
   -2.1434   -4.5375    0.0000 N   0  0  0  0  0  0  0  0  0  0  0  0
   -2.1434   -3.7125    0.0000 C   0  0  0  0  0  0  0  0  0  0  0  0
   -2.8579   -3.3000    0.0000 C   0  0  0  0  0  0  0  0  0  0  0  0
   -2.8579   -2.4750    0.0000 C   0  0  0  0  0  0  0  0  0  0  0  0
   -2.1434   -2.0625    0.0000 C   0  0  0  0  0  0  0  0  0  0  0  0
   -2.1434   -1.2375    0.0000 C   0  0  0  0  0  0  0  0  0  0  0  0
   -2.8109   -0.7526    0.0000 C   0  0  0  0  0  0  0  0  0  0  0  0
   -3.5955   -1.0075    0.0000 C   0  0  0  0  0  0  0  0  0  0  0  0
   -3.7670   -1.8145    0.0000 C   0  0  0  0  0  0  0  0  0  0  0  0
   -4.5516   -2.0694    0.0000 C   0  0  0  0  0  0  0  0  0  0  0  0
   -5.1647   -1.5174    0.0000 N   0  0  0  0  0  0  0  0  0  0  0  0
   -4.9932   -0.7104    0.0000 C   0  0  0  0  0  0  0  0  0  0  0  0
   -4.2086   -0.4555    0.0000 C   0  0  0  0  0  0  0  0  0  0  0  0
   -2.5559    0.0320    0.0000 N   0  0  0  0  0  0  0  0  0  0  0  0
   -1.7309    0.0320    0.0000 C   0  0  0  0  0  0  0  0  0  0  0  0
   -1.1789    0.6451    0.0000 C   0  0  0  0  0  0  0  0  0  0  0  0
   -0.3719    0.4736    0.0000 C   0  0  0  0  0  0  0  0  0  0  0  0
    0.1801    1.0867    0.0000 C   0  0  0  0  0  0  0  0  0  0  0  0
   -0.1170   -0.3110    0.0000 C   0  0  0  0  0  0  0  0  0  0  0  0
   -0.6690   -0.9241    0.0000 C   0  0  0  0  0  0  0  0  0  0  0  0
   -1.4760   -0.7526    0.0000 N   0  0  0  0  0  0  0  0  0  0  0  0
   -1.4289   -2.4750    0.0000 C   0  0  0  0  0  0  0  0  0  0  0  0
   -0.7145   -2.0625    0.0000 C   0  0  0  0  0  0  0  0  0  0  0  0
    0.0000   -1.6500    0.0000 C   0  0  0  0  0  0  0  0  0  0  0  0
    0.7145   -1.2375    0.0000 C   0  0  0  0  0  0  0  0  0  0  0  0
    0.7145   -0.4125    0.0000 C   0  0  0  0  0  0  0  0  0  0  0  0
    1.4289    0.0000    0.0000 C   0  0  0  0  0  0  0  0  0  0  0  0
    2.1434   -0.4125    0.0000 C   0  0  0  0  0  0  0  0  0  0  0  0
    2.8579    0.0000    0.0000 N   0  0  0  0  0  0  0  0  0  0  0  0
    3.5724   -0.4125    0.0000 C   0  0  0  0  0  0  0  0  0  0  0  0
    3.5724   -1.2375    0.0000 C   0  0  0  0  0  0  0  0  0  0  0  0
    2.8579   -1.6500    0.0000 C   0  0  0  0  0  0  0  0  0  0  0  0
    2.1434   -1.2375    0.0000 C   0  0  0  0  0  0  0  0  0  0  0  0
    1.4289   -1.6500    0.0000 C   0  0  0  0  0  0  0  0  0  0  0  0
   -1.4289   -3.3000    0.0000 N   0  0  0  0  0  0  0  0  0  0  0  0
  1  2  1  0  0  0  0
  2  3  1  0  0  0  0
  3  4  1  0  0  0  0
  3  5  1  0  0  0  0
  5  6  2  0  0  0  0
  5  7  1  0  0  0  0
  7  8  1  0  0  0  0
  8  9  4  0  0  0  0
  9 10  4  0  0  0  0
 10 11  4  0  0  0  0
 11 12  1  0  0  0  0
 12 13  4  0  0  0  0
 13 14  1  0  0  0  0
 14 15  4  0  0  0  0
 15 16  4  0  0  0  0
 16 17  4  0  0  0  0
 17 18  4  0  0  0  0
 18 19  4  0  0  0  0
 14 19  4  0  0  0  0
 13 20  4  0  0  0  0
 20 21  4  0  0  0  0
 21 22  4  0  0  0  0
 22 23  4  0  0  0  0
 23 24  1  0  0  0  0
 23 25  4  0  0  0  0
 25 26  4  0  0  0  0
 26 27  4  0  0  0  0
 12 27  4  0  0  0  0
 21 27  4  0  0  0  0
 11 28  4  0  0  0  0
 28 29  1  0  0  0  0
 29 30  3  0  0  0  0
 30 31  1  0  0  0  0
 31 32  4  0  0  0  0
 32 33  4  0  0  0  0
 33 34  4  0  0  0  0
 34 35  4  0  0  0  0
 35 36  4  0  0  0  0
 36 37  4  0  0  0  0
 37 38  4  0  0  0  0
 38 39  4  0  0  0  0
 34 39  4  0  0  0  0
 39 40  4  0  0  0  0
 31 40  4  0  0  0  0
 28 41  4  0  0  0  0
  8 41  4  0  0  0  0
M  END
>  <CdId>
548

>  <Mol Weight>
537.627

>  <Formula>
C33H27N7O

>  <Molecule ChEMBL ID>
CHEMBL3925961

>  <Molecule Max Phase>
None

>  <Molecular Weight>
537.63

>  <#RO5 Violations>
2

>  <AlogP>
5.26

>  <Compound Key>
BDBM253985

>  <Standard Type>
IC50

>  <Standard Relation>
'='

>  <Standard Value>
300.0

>  <Standard Units>
nM

$$$$

  Mrv2114 03112311372D          

 24 26  0  0  0  0            999 V2000
    2.8579    0.0000    0.0000 C   0  0  0  0  0  0  0  0  0  0  0  0
    3.5724    0.4125    0.0000 C   0  0  0  0  0  0  0  0  0  0  0  0
    4.2868    0.0000    0.0000 C   0  0  0  0  0  0  0  0  0  0  0  0
    5.0013    0.4125    0.0000 C   0  0  0  0  0  0  0  0  0  0  0  0
    5.7158    0.0000    0.0000 N   0  0  0  0  0  0  0  0  0  0  0  0
    6.4302    0.4125    0.0000 C   0  0  0  0  0  0  0  0  0  0  0  0
    6.4302    1.2375    0.0000 N   0  0  0  0  0  0  0  0  0  0  0  0
    7.1447    1.6500    0.0000 C   0  0  0  0  0  0  0  0  0  0  0  0
    7.1447    2.4750    0.0000 N   0  0  0  0  0  0  0  0  0  0  0  0
    7.8592    1.2375    0.0000 N   0  0  0  0  0  0  0  0  0  0  0  0
    7.8592    0.4125    0.0000 C   0  0  0  0  0  0  0  0  0  0  0  0
    8.5737    0.0000    0.0000 C   0  0  0  0  0  0  0  0  0  0  0  0
    8.5737   -0.8250    0.0000 C   0  0  0  0  0  0  0  0  0  0  0  0
    7.8592   -1.2375    0.0000 C   0  0  0  0  0  0  0  0  0  0  0  0
    7.1447   -0.8250    0.0000 C   0  0  0  0  0  0  0  0  0  0  0  0
    6.4302   -1.2375    0.0000 O   0  0  0  0  0  0  0  0  0  0  0  0
    6.4302   -2.0625    0.0000 C   0  0  0  0  0  0  0  0  0  0  0  0
    7.1447   -2.4750    0.0000 C   0  0  0  0  0  0  0  0  0  0  0  0
    7.8592   -2.0625    0.0000 C   0  0  0  0  0  0  0  0  0  0  0  0
    8.5737   -2.4750    0.0000 C   0  0  0  0  0  0  0  0  0  0  0  0
    8.5737   -3.3000    0.0000 C   0  0  0  0  0  0  0  0  0  0  0  0
    7.8592   -3.7125    0.0000 C   0  0  0  0  0  0  0  0  0  0  0  0
    7.1447   -3.3000    0.0000 N   0  0  0  0  0  0  0  0  0  0  0  0
    7.1447    0.0000    0.0000 C   0  0  0  0  0  0  0  0  0  0  0  0
  1  2  1  0  0  0  0
  2  3  1  0  0  0  0
  3  4  1  0  0  0  0
  4  5  1  0  0  0  0
  5  6  1  0  0  0  0
  6  7  4  0  0  0  0
  7  8  4  0  0  0  0
  8  9  1  0  0  0  0
  8 10  4  0  0  0  0
 10 11  4  0  0  0  0
 11 12  4  0  0  0  0
 12 13  4  0  0  0  0
 13 14  4  0  0  0  0
 14 15  4  0  0  0  0
 15 16  1  0  0  0  0
 16 17  1  0  0  0  0
 17 18  1  0  0  0  0
 18 19  4  0  0  0  0
 19 20  4  0  0  0  0
 20 21  4  0  0  0  0
 21 22  4  0  0  0  0
 22 23  4  0  0  0  0
 18 23  4  0  0  0  0
 15 24  4  0  0  0  0
  6 24  4  0  0  0  0
 11 24  4  0  0  0  0
M  END
>  <CdId>
549

>  <Mol Weight>
323.4

>  <Formula>
C18H21N5O

>  <Molecule ChEMBL ID>
CHEMBL4218074

>  <Molecule Max Phase>
None

>  <Molecular Weight>
323.4

>  <#RO5 Violations>
0

>  <AlogP>
3.4

>  <Compound Key>
39

>  <Standard Type>
IC50

>  <Standard Relation>
'>'

>  <Standard Value>
10000.0

>  <Standard Units>
nM

$$$$

  Mrv2114 03112311372D          

 19 21  0  0  0  0            999 V2000
    4.7812    1.9354    0.0000 C   0  0  0  0  0  0  0  0  0  0  0  0
    4.0668    2.3479    0.0000 O   0  0  0  0  0  0  0  0  0  0  0  0
    3.3523    1.9354    0.0000 C   0  0  0  0  0  0  0  0  0  0  0  0
    3.3523    1.1104    0.0000 C   0  0  0  0  0  0  0  0  0  0  0  0
    2.6378    0.6979    0.0000 C   0  0  0  0  0  0  0  0  0  0  0  0
    1.9233    1.1104    0.0000 C   0  0  0  0  0  0  0  0  0  0  0  0
    1.1387    0.8555    0.0000 N   0  0  0  0  0  0  0  0  0  0  0  0
    0.6538    1.5229    0.0000 C   0  0  0  0  0  0  0  0  0  0  0  0
   -0.1712    1.5229    0.0000 S   0  0  0  0  0  0  0  0  0  0  0  0
   -0.5837    0.8085    0.0000 C   0  0  0  0  0  0  0  0  0  0  0  0
   -1.4087    0.8085    0.0000 C   0  0  0  0  0  0  0  0  0  0  0  0
   -1.8212    0.0940    0.0000 C   0  0  0  0  0  0  0  0  0  0  0  0
   -2.6462    0.0940    0.0000 C   0  0  0  0  0  0  0  0  0  0  0  0
   -3.0587    0.8085    0.0000 C   0  0  0  0  0  0  0  0  0  0  0  0
   -2.6462    1.5229    0.0000 C   0  0  0  0  0  0  0  0  0  0  0  0
   -1.8212    1.5229    0.0000 C   0  0  0  0  0  0  0  0  0  0  0  0
    1.1387    2.1904    0.0000 N   0  0  0  0  0  0  0  0  0  0  0  0
    1.9233    1.9354    0.0000 C   0  0  0  0  0  0  0  0  0  0  0  0
    2.6378    2.3479    0.0000 C   0  0  0  0  0  0  0  0  0  0  0  0
  1  2  1  0  0  0  0
  2  3  1  0  0  0  0
  3  4  4  0  0  0  0
  4  5  4  0  0  0  0
  5  6  4  0  0  0  0
  6  7  4  0  0  0  0
  7  8  4  0  0  0  0
  8  9  1  0  0  0  0
  9 10  1  0  0  0  0
 10 11  1  0  0  0  0
 11 12  1  0  0  0  0
 12 13  1  0  0  0  0
 13 14  1  0  0  0  0
 14 15  1  0  0  0  0
 15 16  1  0  0  0  0
 11 16  1  0  0  0  0
  8 17  4  0  0  0  0
 17 18  4  0  0  0  0
  6 18  4  0  0  0  0
 18 19  4  0  0  0  0
  3 19  4  0  0  0  0
M  STY  1   1 DAT
M  SAL   1  1   7
M  SDT   1 MRV_IMPLICIT_H                                        
M  SDD   1     0.0000    0.0000    DR    ALL  0       0  
M  SED   1 IMPL_H1
M  END
>  <CdId>
550

>  <Mol Weight>
276.4

>  <Formula>
C15H20N2OS

>  <Molecule ChEMBL ID>
CHEMBL2018912

>  <Molecule Max Phase>
None

>  <Molecular Weight>
276.4

>  <#RO5 Violations>
0

>  <AlogP>
4.24

>  <Compound Key>
10

>  <Standard Type>
IC50

>  <Standard Relation>
'='

>  <Standard Value>
5110.0

>  <Standard Units>
nM

$$$$

  Mrv2114 03112311372D          

 22 24  0  0  0  0            999 V2000
    4.7812    1.9354    0.0000 C   0  0  0  0  0  0  0  0  0  0  0  0
    4.0668    2.3479    0.0000 O   0  0  0  0  0  0  0  0  0  0  0  0
    3.3523    1.9354    0.0000 C   0  0  0  0  0  0  0  0  0  0  0  0
    3.3523    1.1104    0.0000 C   0  0  0  0  0  0  0  0  0  0  0  0
    2.6378    0.6979    0.0000 C   0  0  0  0  0  0  0  0  0  0  0  0
    1.9233    1.1104    0.0000 C   0  0  0  0  0  0  0  0  0  0  0  0
    1.1387    0.8555    0.0000 N   0  0  0  0  0  0  0  0  0  0  0  0
    0.6538    1.5229    0.0000 C   0  0  0  0  0  0  0  0  0  0  0  0
   -0.1712    1.5229    0.0000 S   0  0  0  0  0  0  0  0  0  0  0  0
   -0.5837    0.8085    0.0000 C   0  0  0  0  0  0  0  0  0  0  0  0
   -1.4087    0.8085    0.0000 C   0  0  0  0  0  0  0  0  0  0  0  0
   -1.8212    0.0940    0.0000 C   0  0  0  0  0  0  0  0  0  0  0  0
   -2.6462    0.0940    0.0000 C   0  0  0  0  0  0  0  0  0  0  0  0
   -3.0587    0.8085    0.0000 C   0  0  0  0  0  0  0  0  0  0  0  0
   -3.8837    0.8085    0.0000 C   0  0  0  0  0  0  0  0  0  0  0  0
   -4.2962    0.0940    0.0000 C   0  0  0  0  0  0  0  0  0  0  0  0
   -4.2962    1.5229    0.0000 C   0  0  0  0  0  0  0  0  0  0  0  0
   -2.6462    1.5229    0.0000 C   0  0  0  0  0  0  0  0  0  0  0  0
   -1.8212    1.5229    0.0000 C   0  0  0  0  0  0  0  0  0  0  0  0
    1.1387    2.1904    0.0000 N   0  0  0  0  0  0  0  0  0  0  0  0
    1.9233    1.9354    0.0000 C   0  0  0  0  0  0  0  0  0  0  0  0
    2.6378    2.3479    0.0000 C   0  0  0  0  0  0  0  0  0  0  0  0
  1  2  1  0  0  0  0
  2  3  1  0  0  0  0
  3  4  4  0  0  0  0
  4  5  4  0  0  0  0
  5  6  4  0  0  0  0
  6  7  4  0  0  0  0
  7  8  4  0  0  0  0
  8  9  1  0  0  0  0
  9 10  1  0  0  0  0
 10 11  1  0  0  0  0
 11 12  4  0  0  0  0
 12 13  4  0  0  0  0
 13 14  4  0  0  0  0
 14 15  1  0  0  0  0
 15 16  1  0  0  0  0
 15 17  1  0  0  0  0
 14 18  4  0  0  0  0
 18 19  4  0  0  0  0
 11 19  4  0  0  0  0
  8 20  4  0  0  0  0
 20 21  4  0  0  0  0
  6 21  4  0  0  0  0
 21 22  4  0  0  0  0
  3 22  4  0  0  0  0
M  STY  1   1 DAT
M  SAL   1  1   7
M  SDT   1 MRV_IMPLICIT_H                                        
M  SDD   1     0.0000    0.0000    DR    ALL  0       0  
M  SED   1 IMPL_H1
M  END
>  <CdId>
551

>  <Mol Weight>
312.43

>  <Formula>
C18H20N2OS

>  <Molecule ChEMBL ID>
CHEMBL2018917

>  <Molecule Max Phase>
None

>  <Molecular Weight>
312.44

>  <#RO5 Violations>
0

>  <AlogP>
4.99

>  <Compound Key>
15

>  <Standard Type>
IC50

>  <Standard Relation>
'>'

>  <Standard Value>
50000.0

>  <Standard Units>
nM

$$$$

  Mrv2114 03112311372D          

 16 17  0  0  0  0            999 V2000
    4.7812    1.9354    0.0000 C   0  0  0  0  0  0  0  0  0  0  0  0
    4.0668    2.3479    0.0000 O   0  0  0  0  0  0  0  0  0  0  0  0
    3.3523    1.9354    0.0000 C   0  0  0  0  0  0  0  0  0  0  0  0
    3.3523    1.1104    0.0000 C   0  0  0  0  0  0  0  0  0  0  0  0
    2.6378    0.6979    0.0000 C   0  0  0  0  0  0  0  0  0  0  0  0
    1.9233    1.1104    0.0000 C   0  0  0  0  0  0  0  0  0  0  0  0
    1.1387    0.8555    0.0000 N   0  0  0  0  0  0  0  0  0  0  0  0
    0.6538    1.5229    0.0000 C   0  0  0  0  0  0  0  0  0  0  0  0
   -0.1712    1.5229    0.0000 S   0  0  0  0  0  0  0  0  0  0  0  0
   -0.5837    0.8085    0.0000 C   0  0  0  0  0  0  0  0  0  0  0  0
   -1.4087    0.8085    0.0000 C   0  0  0  0  0  0  0  0  0  0  0  0
   -1.8212    0.0940    0.0000 C   0  0  0  0  0  0  0  0  0  0  0  0
   -1.8212    1.5229    0.0000 C   0  0  0  0  0  0  0  0  0  0  0  0
    1.1387    2.1904    0.0000 N   0  0  0  0  0  0  0  0  0  0  0  0
    1.9233    1.9354    0.0000 C   0  0  0  0  0  0  0  0  0  0  0  0
    2.6378    2.3479    0.0000 C   0  0  0  0  0  0  0  0  0  0  0  0
  1  2  1  0  0  0  0
  2  3  1  0  0  0  0
  3  4  4  0  0  0  0
  4  5  4  0  0  0  0
  5  6  4  0  0  0  0
  6  7  4  0  0  0  0
  7  8  4  0  0  0  0
  8  9  1  0  0  0  0
  9 10  1  0  0  0  0
 10 11  1  0  0  0  0
 11 12  1  0  0  0  0
 11 13  1  0  0  0  0
  8 14  4  0  0  0  0
 14 15  4  0  0  0  0
  6 15  4  0  0  0  0
 15 16  4  0  0  0  0
  3 16  4  0  0  0  0
M  STY  1   1 DAT
M  SAL   1  1   7
M  SDT   1 MRV_IMPLICIT_H                                        
M  SDD   1     0.0000    0.0000    DR    ALL  0       0  
M  SED   1 IMPL_H1
M  END
>  <CdId>
552

>  <Mol Weight>
236.33

>  <Formula>
C12H16N2OS

>  <Molecule ChEMBL ID>
CHEMBL2018909

>  <Molecule Max Phase>
None

>  <Molecular Weight>
236.34

>  <#RO5 Violations>
0

>  <AlogP>
3.32

>  <Compound Key>
7

>  <Standard Type>
IC50

>  <Standard Relation>
'='

>  <Standard Value>
31900.0

>  <Standard Units>
nM

$$$$

  Mrv2114 03112311372D          

 22 21  0  0  0  0            999 V2000
    0.0000    0.0000    0.0000 Cl  0  0  0  0  0  0  0  0  0  0  0  0
    2.0036    0.0000    0.0000 Cl  0  0  0  0  0  0  0  0  0  0  0  0
    0.0000   -3.8945    0.0000 Cl  0  0  0  0  0  0  0  0  0  0  0  0
    5.8097   -1.6500    0.0000 N   0  0  0  0  0  0  0  0  0  0  0  0
    5.0952   -2.0625    0.0000 C   0  0  0  0  0  0  0  0  0  0  0  0
    5.0952   -2.8875    0.0000 C   0  0  0  0  0  0  0  0  0  0  0  0
    5.7627   -3.3724    0.0000 C   0  0  0  0  0  0  0  0  0  0  0  0
    5.5077   -4.1570    0.0000 C   0  0  0  0  0  0  0  0  0  0  0  0
    4.6827   -4.1570    0.0000 C   0  0  0  0  0  0  0  0  0  0  0  0
    4.1978   -4.8245    0.0000 C   0  0  0  0  0  0  0  0  0  0  0  0
    4.5333   -5.5782    0.0000 C   0  0  0  0  0  0  0  0  0  0  0  0
    4.0484   -6.2456    0.0000 N   0  0  0  0  0  0  0  0  0  0  0  0
    3.2279   -6.1594    0.0000 C   0  0  0  0  0  0  0  0  0  0  0  0
    2.8924   -5.4057    0.0000 C   0  0  0  0  0  0  0  0  0  0  0  0
    3.3773   -4.7382    0.0000 C   0  0  0  0  0  0  0  0  0  0  0  0
    3.0418   -3.9846    0.0000 C   0  0  0  0  0  0  0  0  0  0  0  0
    2.2213   -3.8983    0.0000 C   0  0  0  0  0  0  0  0  0  0  0  0
    1.8857   -3.1447    0.0000 C   0  0  0  0  0  0  0  0  0  0  0  0
    2.3706   -2.4772    0.0000 C   0  0  0  0  0  0  0  0  0  0  0  0
    3.1911   -2.5635    0.0000 N   0  0  0  0  0  0  0  0  0  0  0  0
    3.5267   -3.3171    0.0000 C   0  0  0  0  0  0  0  0  0  0  0  0
    4.4278   -3.3724    0.0000 O   0  0  0  0  0  0  0  0  0  0  0  0
  4  5  1  0  0  0  0
  5  6  1  0  0  0  0
  6  7  4  0  0  0  0
  7  8  4  0  0  0  0
  8  9  4  0  0  0  0
  9 10  1  0  0  0  0
 10 11  4  0  0  0  0
 11 12  4  0  0  0  0
 12 13  4  0  0  0  0
 13 14  4  0  0  0  0
 14 15  4  0  0  0  0
 10 15  4  0  0  0  0
 15 16  1  0  0  0  0
 16 17  4  0  0  0  0
 17 18  4  0  0  0  0
 18 19  4  0  0  0  0
 19 20  4  0  0  0  0
 20 21  4  0  0  0  0
 16 21  4  0  0  0  0
  9 22  4  0  0  0  0
  6 22  4  0  0  0  0
M  END
>  <CdId>
553

>  <Mol Weight>
360.66

>  <Formula>
C15H16Cl3N3O

>  <Molecule ChEMBL ID>
CHEMBL4165895

>  <Molecule Max Phase>
None

>  <Molecular Weight>
360.67

>  <#RO5 Violations>
0

>  <AlogP>
2.86

>  <Compound Key>
5p

>  <Standard Type>
IC50

>  <Standard Relation>
'>'

>  <Standard Value>
25000.0

>  <Standard Units>
nM

$$$$

  Mrv2114 03112311372D          

 34 37  0  0  0  0            999 V2000
   -3.6610   -4.5769    0.0000 C   0  0  0  0  0  0  0  0  0  0  0  0
   -3.4060   -3.7923    0.0000 C   0  0  0  0  0  0  0  0  0  0  0  0
   -3.9580   -3.1792    0.0000 O   0  0  0  0  0  0  0  0  0  0  0  0
   -2.5990   -3.6207    0.0000 N   0  0  0  0  0  0  0  0  0  0  0  0
   -2.3441   -2.8361    0.0000 C   0  0  0  0  0  0  0  0  0  0  0  0
   -1.5371   -2.6646    0.0000 C   0  0  0  0  0  0  0  0  0  0  0  0
   -0.9851   -3.2777    0.0000 N   0  0  0  0  0  0  0  0  0  0  0  0
   -0.1781   -3.1062    0.0000 C   0  0  0  0  0  0  0  0  0  0  0  0
    0.0768   -2.3215    0.0000 C   0  0  0  0  0  0  0  0  0  0  0  0
    0.8838   -2.1500    0.0000 C   0  0  0  0  0  0  0  0  0  0  0  0
    1.1387   -1.3654    0.0000 C   0  0  0  0  0  0  0  0  0  0  0  0
    0.6538   -0.6979    0.0000 C   0  0  0  0  0  0  0  0  0  0  0  0
    1.1387   -0.0305    0.0000 C   0  0  0  0  0  0  0  0  0  0  0  0
    0.8838    0.7541    0.0000 C   0  0  0  0  0  0  0  0  0  0  0  0
    0.6288    1.5387    0.0000 F   0  0  0  0  0  0  0  0  0  0  0  0
    1.6684    1.0091    0.0000 F   0  0  0  0  0  0  0  0  0  0  0  0
    0.0992    0.4992    0.0000 F   0  0  0  0  0  0  0  0  0  0  0  0
    1.9233   -0.2854    0.0000 C   0  0  0  0  0  0  0  0  0  0  0  0
    2.6378    0.1271    0.0000 C   0  0  0  0  0  0  0  0  0  0  0  0
    2.6378    0.9521    0.0000 N   0  0  0  0  0  0  0  0  0  0  0  0
    3.3523   -0.2854    0.0000 N   0  0  0  0  0  0  0  0  0  0  0  0
    3.3523   -1.1104    0.0000 C   0  0  0  0  0  0  0  0  0  0  0  0
    2.6378   -1.5229    0.0000 N   0  0  0  0  0  0  0  0  0  0  0  0
    1.9233   -1.1104    0.0000 N   0  0  0  0  0  0  0  0  0  0  0  0
    1.4358   -2.7631    0.0000 C   0  0  0  0  0  0  0  0  0  0  0  0
    1.1809   -3.5477    0.0000 C   0  0  0  0  0  0  0  0  0  0  0  0
    0.3739   -3.7192    0.0000 C   0  0  0  0  0  0  0  0  0  0  0  0
    0.1190   -4.5039    0.0000 C   0  0  0  0  0  0  0  0  0  0  0  0
   -0.1360   -5.2885    0.0000 N   0  0  0  0  0  0  0  0  0  0  0  0
   -1.2400   -4.0623    0.0000 C   0  0  0  0  0  0  0  0  0  0  0  0
   -0.6880   -4.6754    0.0000 O   0  0  0  0  0  0  0  0  0  0  0  0
   -2.0470   -4.2338    0.0000 C   0  0  0  0  0  0  0  0  0  0  0  0
   -1.9038   -5.0463    0.0000 C   0  0  0  0  0  0  0  0  0  0  0  0
   -2.6405   -4.8069    0.0000 C   0  0  0  0  0  0  0  0  0  0  0  0
  1  2  1  0  0  0  0
  2  3  2  0  0  0  0
  2  4  1  0  0  0  0
  4  5  1  0  0  0  0
  5  6  1  0  0  0  0
  6  7  1  0  0  0  0
  7  8  1  0  0  0  0
  8  9  4  0  0  0  0
  9 10  4  0  0  0  0
 10 11  1  0  0  0  0
 11 12  4  0  0  0  0
 12 13  4  0  0  0  0
 13 14  1  0  0  0  0
 14 15  1  0  0  0  0
 14 16  1  0  0  0  0
 14 17  1  0  0  0  0
 13 18  4  0  0  0  0
 18 19  4  0  0  0  0
 19 20  1  0  0  0  0
 19 21  4  0  0  0  0
 21 22  4  0  0  0  0
 22 23  4  0  0  0  0
 23 24  4  0  0  0  0
 11 24  4  0  0  0  0
 18 24  4  0  0  0  0
 10 25  4  0  0  0  0
 25 26  4  0  0  0  0
 26 27  4  0  0  0  0
  8 27  4  0  0  0  0
 27 28  1  0  0  0  0
 28 29  3  0  0  0  0
  7 30  1  0  0  0  0
 30 31  2  0  0  0  0
 30 32  1  0  0  0  0
  4 32  1  0  0  0  0
 32 33  1  0  0  0  0
 32 34  1  0  0  0  0
M  END
>  <CdId>
554

>  <Mol Weight>
471.444

>  <Formula>
C22H20F3N7O2

>  <Molecule ChEMBL ID>
CHEMBL4064666

>  <Molecule Max Phase>
None

>  <Molecular Weight>
471.44

>  <#RO5 Violations>
0

>  <AlogP>
2.84

>  <Compound Key>
52

>  <Standard Type>
IC50

>  <Standard Relation>
'>'

>  <Standard Value>
20000.0

>  <Standard Units>
nM

$$$$

  Mrv2114 03112311372D          

 24 26  0  0  0  0            999 V2000
    1.4289   -1.6500    0.0000 C   0  0  0  0  0  0  0  0  0  0  0  0
    1.4289   -2.4750    0.0000 C   0  0  0  0  0  0  0  0  0  0  0  0
    2.1434   -2.8875    0.0000 C   0  0  0  0  0  0  0  0  0  0  0  0
    2.1434   -3.7125    0.0000 C   0  0  0  0  0  0  0  0  0  0  0  0
    2.8579   -4.1250    0.0000 O   0  0  0  0  0  0  0  0  0  0  0  0
    3.5724   -3.7125    0.0000 C   0  0  0  0  0  0  0  0  0  0  0  0
    3.5724   -2.8875    0.0000 C   0  0  0  0  0  0  0  0  0  0  0  0
    4.2868   -2.4750    0.0000 N   0  0  0  0  0  0  0  0  0  0  0  0
    5.0013   -2.8875    0.0000 C   0  0  0  0  0  0  0  0  0  0  0  0
    5.0013   -3.7125    0.0000 N   0  0  0  0  0  0  0  0  0  0  0  0
    4.2868   -4.1250    0.0000 C   0  0  0  0  0  0  0  0  0  0  0  0
    1.4289   -4.1250    0.0000 C   0  0  0  0  0  0  0  0  0  0  0  0
    0.7145   -3.7125    0.0000 C   0  0  0  0  0  0  0  0  0  0  0  0
    0.0000   -4.1250    0.0000 C   0  0  0  0  0  0  0  0  0  0  0  0
   -0.7145   -3.7125    0.0000 O   0  0  0  0  0  0  0  0  0  0  0  0
    0.0000   -4.9500    0.0000 N   0  0  0  0  0  0  0  0  0  0  0  0
   -0.7145   -5.3625    0.0000 C   0  0  0  0  0  0  0  0  0  0  0  0
   -0.7145   -6.1875    0.0000 C   0  0  0  0  0  0  0  0  0  0  0  0
   -1.4289   -6.6000    0.0000 C   0  0  0  0  0  0  0  0  0  0  0  0
   -2.1434   -6.1875    0.0000 C   0  0  0  0  0  0  0  0  0  0  0  0
   -2.8579   -6.6000    0.0000 F   0  0  0  0  0  0  0  0  0  0  0  0
   -2.1434   -5.3625    0.0000 C   0  0  0  0  0  0  0  0  0  0  0  0
   -1.4289   -4.9500    0.0000 N   0  0  0  0  0  0  0  0  0  0  0  0
    0.7145   -2.8875    0.0000 N   0  0  0  0  0  0  0  0  0  0  0  0
  1  2  1  0  0  0  0
  2  3  4  0  0  0  0
  3  4  4  0  0  0  0
  4  5  1  0  0  0  0
  5  6  1  0  0  0  0
  6  7  4  0  0  0  0
  7  8  4  0  0  0  0
  8  9  4  0  0  0  0
  9 10  4  0  0  0  0
 10 11  4  0  0  0  0
  6 11  4  0  0  0  0
  4 12  4  0  0  0  0
 12 13  4  0  0  0  0
 13 14  1  0  0  0  0
 14 15  2  0  0  0  0
 14 16  1  0  0  0  0
 16 17  1  0  0  0  0
 17 18  4  0  0  0  0
 18 19  4  0  0  0  0
 19 20  4  0  0  0  0
 20 21  1  0  0  0  0
 20 22  4  0  0  0  0
 22 23  4  0  0  0  0
 17 23  4  0  0  0  0
 13 24  4  0  0  0  0
  2 24  4  0  0  0  0
M  END
>  <CdId>
555

>  <Mol Weight>
325.303

>  <Formula>
C16H12FN5O2

>  <Molecule ChEMBL ID>
CHEMBL2386850

>  <Molecule Max Phase>
None

>  <Molecular Weight>
325.3

>  <#RO5 Violations>
0

>  <AlogP>
2.76

>  <Compound Key>
27

>  <Standard Type>
IC50

>  <Standard Relation>
'>'

>  <Standard Value>
200000.0

>  <Standard Units>
nM

$$$$

  Mrv2114 03112311372D          

 25 29  0  0  1  0            999 V2000
    1.5279   -2.9604    0.0000 C   0  0  0  0  0  0  0  0  0  0  0  0
    2.3237   -2.7431    0.0000 C   0  0  0  0  0  0  0  0  0  0  0  0
    3.1196   -2.5258    0.0000 C   0  0  2  0  0  0  0  0  0  0  0  0
    3.2525   -3.3400    0.0000 O   0  0  0  0  0  0  0  0  0  0  0  0
    2.8203   -1.7570    0.0000 C   0  0  0  0  0  0  0  0  0  0  0  0
    3.4589   -1.2348    0.0000 C   0  0  0  0  0  0  0  0  0  0  0  0
    4.1530   -1.6808    0.0000 C   0  0  1  0  0  0  0  0  0  0  0  0
    4.9488   -1.4635    0.0000 C   0  0  2  0  0  0  0  0  0  0  0  0
    5.1586   -0.6656    0.0000 C   0  0  0  0  0  0  0  0  0  0  0  0
    5.9544   -0.4483    0.0000 C   0  0  0  0  0  0  0  0  0  0  0  0
    6.5406   -1.0289    0.0000 C   0  0  0  0  0  0  0  0  0  0  0  0
    7.3364   -0.8116    0.0000 C   0  0  0  0  0  0  0  0  0  0  0  0
    7.9226   -1.3922    0.0000 C   0  0  0  0  0  0  0  0  0  0  0  0
    8.7462   -1.3451    0.0000 O   0  0  0  0  0  0  0  0  0  0  0  0
    9.0455   -2.1139    0.0000 N   0  0  0  0  0  0  0  0  0  0  0  0
    8.4069   -2.6361    0.0000 C   0  0  0  0  0  0  0  0  0  0  0  0
    7.7128   -2.1901    0.0000 C   0  0  0  0  0  0  0  0  0  0  0  0
    6.9170   -2.4074    0.0000 C   0  0  0  0  0  0  0  0  0  0  0  0
    6.3308   -1.8268    0.0000 C   0  0  1  0  0  0  0  0  0  0  0  0
    6.1211   -2.6247    0.0000 C   0  0  0  0  0  0  0  0  0  0  0  0
    5.5350   -2.0441    0.0000 C   0  0  1  0  0  0  0  0  0  0  0  0
    5.3252   -2.8420    0.0000 C   0  0  0  0  0  0  0  0  0  0  0  0
    4.5294   -3.0593    0.0000 C   0  0  0  0  0  0  0  0  0  0  0  0
    3.9432   -2.4787    0.0000 C   0  0  2  0  0  0  0  0  0  0  0  0
    3.6512   -3.2503    0.0000 C   0  0  0  0  0  0  0  0  0  0  0  0
  1  2  3  0  0  0  0
  3  2  1  6  0  0  0
  3  4  1  1  0  0  0
  3  5  1  0  0  0  0
  5  6  1  0  0  0  0
  7  6  1  1  0  0  0
  7  8  1  0  0  0  0
  8  9  1  6  0  0  0
  9 10  1  0  0  0  0
 10 11  1  0  0  0  0
 11 12  2  0  0  0  0
 12 13  1  0  0  0  0
 13 14  4  0  0  0  0
 14 15  4  0  0  0  0
 15 16  4  0  0  0  0
 16 17  4  0  0  0  0
 13 17  4  0  0  0  0
 17 18  1  0  0  0  0
 19 18  1  0  0  0  0
 19 11  1  0  0  0  0
 19 20  1  1  0  0  0
 21 19  1  0  0  0  0
  8 21  1  0  0  0  0
 21 22  1  1  0  0  0
 22 23  1  0  0  0  0
 24 23  1  0  0  0  0
  7 24  1  0  0  0  0
 24  3  1  0  0  0  0
 24 25  1  1  0  0  0
M  END
>  <CdId>
556

>  <Mol Weight>
337.463

>  <Formula>
C22H27NO2

>  <Molecule ChEMBL ID>
CHEMBL1479

>  <Molecule Name>
DANAZOL

>  <Molecule Max Phase>
4

>  <Molecular Weight>
337.46

>  <#RO5 Violations>
0

>  <AlogP>
4.22

>  <Compound Key>
SID170464884

>  <Standard Type>
IC50

>  <Standard Relation>
'='

>  <Standard Value>
1950.0

>  <Standard Units>
nM

$$$$

  Mrv2114 03112311372D          

 28 31  0  0  0  0            999 V2000
   -3.0587    1.4455    0.0000 C   0  0  0  0  0  0  0  0  0  0  0  0
   -2.6462    0.7310    0.0000 C   0  0  0  0  0  0  0  0  0  0  0  0
   -3.0587    0.0165    0.0000 O   0  0  0  0  0  0  0  0  0  0  0  0
   -1.8212    0.7310    0.0000 N   0  0  0  0  0  0  0  0  0  0  0  0
   -1.4087    0.0165    0.0000 C   0  0  0  0  0  0  0  0  0  0  0  0
   -0.5837    0.0165    0.0000 C   0  0  0  0  0  0  0  0  0  0  0  0
   -0.1712   -0.6979    0.0000 C   0  0  0  0  0  0  0  0  0  0  0  0
    0.6538   -0.6979    0.0000 C   0  0  0  0  0  0  0  0  0  0  0  0
    1.1387   -0.0305    0.0000 N   0  0  0  0  0  0  0  0  0  0  0  0
    1.9233   -0.2854    0.0000 C   0  0  0  0  0  0  0  0  0  0  0  0
    2.6378    0.1271    0.0000 C   0  0  0  0  0  0  0  0  0  0  0  0
    3.3523   -0.2854    0.0000 C   0  0  0  0  0  0  0  0  0  0  0  0
    3.3523   -1.1104    0.0000 C   0  0  0  0  0  0  0  0  0  0  0  0
    2.6378   -1.5229    0.0000 N   0  0  0  0  0  0  0  0  0  0  0  0
    1.9233   -1.1104    0.0000 C   0  0  0  0  0  0  0  0  0  0  0  0
    1.1387   -1.3654    0.0000 C   0  0  0  0  0  0  0  0  0  0  0  0
    0.8838   -2.1500    0.0000 C   0  0  0  0  0  0  0  0  0  0  0  0
    1.4358   -2.7631    0.0000 C   0  0  0  0  0  0  0  0  0  0  0  0
    1.1809   -3.5477    0.0000 C   0  0  0  0  0  0  0  0  0  0  0  0
    0.3739   -3.7192    0.0000 C   0  0  0  0  0  0  0  0  0  0  0  0
   -0.1781   -3.1062    0.0000 C   0  0  0  0  0  0  0  0  0  0  0  0
   -0.9851   -3.2777    0.0000 C   0  0  0  0  0  0  0  0  0  0  0  0
   -1.2400   -4.0623    0.0000 F   0  0  0  0  0  0  0  0  0  0  0  0
   -1.5371   -2.6646    0.0000 F   0  0  0  0  0  0  0  0  0  0  0  0
    0.0768   -2.3215    0.0000 N   0  0  0  0  0  0  0  0  0  0  0  0
   -0.5837   -1.4124    0.0000 C   0  0  0  0  0  0  0  0  0  0  0  0
   -1.4087   -1.4124    0.0000 C   0  0  0  0  0  0  0  0  0  0  0  0
   -1.8212   -0.6979    0.0000 N   0  0  0  0  0  0  0  0  0  0  0  0
  1  2  1  0  0  0  0
  2  3  2  0  0  0  0
  2  4  1  0  0  0  0
  4  5  1  0  0  0  0
  5  6  4  0  0  0  0
  6  7  4  0  0  0  0
  7  8  1  0  0  0  0
  8  9  4  0  0  0  0
  9 10  4  0  0  0  0
 10 11  4  0  0  0  0
 11 12  4  0  0  0  0
 12 13  4  0  0  0  0
 13 14  4  0  0  0  0
 14 15  4  0  0  0  0
 10 15  4  0  0  0  0
 15 16  4  0  0  0  0
  8 16  4  0  0  0  0
 16 17  1  0  0  0  0
 17 18  4  0  0  0  0
 18 19  4  0  0  0  0
 19 20  4  0  0  0  0
 20 21  4  0  0  0  0
 21 22  1  0  0  0  0
 22 23  1  0  0  0  0
 22 24  1  0  0  0  0
 21 25  4  0  0  0  0
 17 25  4  0  0  0  0
  7 26  4  0  0  0  0
 26 27  4  0  0  0  0
 27 28  4  0  0  0  0
  5 28  4  0  0  0  0
M  STY  1   1 DAT
M  SAL   1  1   9
M  SDT   1 MRV_IMPLICIT_H                                        
M  SDD   1     0.0000    0.0000    DR    ALL  0       0  
M  SED   1 IMPL_H1
M  END
>  <CdId>
557

>  <Mol Weight>
379.371

>  <Formula>
C20H15F2N5O

>  <Molecule ChEMBL ID>
CHEMBL4284170

>  <Molecule Max Phase>
None

>  <Molecular Weight>
379.37

>  <#RO5 Violations>
0

>  <AlogP>
4.58

>  <Compound Key>
3h

>  <Standard Type>
IC50

>  <Standard Relation>
'>'

>  <Standard Value>
20000.0

>  <Standard Units>
nM

$$$$

  Mrv2114 03112311372D          

 28 31  0  0  1  0            999 V2000
   -0.1712   -2.1269    0.0000 C   0  0  0  0  0  0  0  0  0  0  0  0
   -0.5837   -1.4124    0.0000 N   0  0  0  0  0  0  0  0  0  0  0  0
   -1.4087   -1.4124    0.0000 C   0  0  0  0  0  0  0  0  0  0  0  0
   -1.8212   -0.6979    0.0000 C   0  0  0  0  0  0  0  0  0  0  0  0
   -1.4087    0.0165    0.0000 C   0  0  1  0  0  0  0  0  0  0  0  0
   -1.8212    0.7310    0.0000 N   0  0  0  0  0  0  0  0  0  0  0  0
   -2.6462    0.7310    0.0000 C   0  0  0  0  0  0  0  0  0  0  0  0
   -3.0587    0.0165    0.0000 O   0  0  0  0  0  0  0  0  0  0  0  0
   -3.0587    1.4455    0.0000 N   0  0  0  0  0  0  0  0  0  0  0  0
   -3.8837    1.4455    0.0000 C   0  0  0  0  0  0  0  0  0  0  0  0
   -4.2962    0.7310    0.0000 C   0  0  0  0  0  0  0  0  0  0  0  0
   -5.1212    0.7310    0.0000 C   0  0  0  0  0  0  0  0  0  0  0  0
   -5.5337    1.4455    0.0000 C   0  0  0  0  0  0  0  0  0  0  0  0
   -6.3587    1.4455    0.0000 C   0  0  0  0  0  0  0  0  0  0  0  0
   -7.1837    1.4455    0.0000 N   0  0  0  0  0  0  0  0  0  0  0  0
   -5.1212    2.1599    0.0000 C   0  0  0  0  0  0  0  0  0  0  0  0
   -4.2962    2.1599    0.0000 C   0  0  0  0  0  0  0  0  0  0  0  0
   -0.5837    0.0165    0.0000 C   0  0  0  0  0  0  0  0  0  0  0  0
   -0.1712   -0.6979    0.0000 C   0  0  2  0  0  0  0  0  0  0  0  0
    0.6538   -0.6979    0.0000 C   0  0  0  0  0  0  0  0  0  0  0  0
    1.1387   -0.0305    0.0000 N   0  0  0  0  0  0  0  0  0  0  0  0
    1.9233   -0.2854    0.0000 C   0  0  0  0  0  0  0  0  0  0  0  0
    2.6378    0.1271    0.0000 C   0  0  0  0  0  0  0  0  0  0  0  0
    3.3523   -0.2854    0.0000 C   0  0  0  0  0  0  0  0  0  0  0  0
    3.3523   -1.1104    0.0000 C   0  0  0  0  0  0  0  0  0  0  0  0
    2.6378   -1.5229    0.0000 C   0  0  0  0  0  0  0  0  0  0  0  0
    1.9233   -1.1104    0.0000 C   0  0  0  0  0  0  0  0  0  0  0  0
    1.1387   -1.3654    0.0000 N   0  0  0  0  0  0  0  0  0  0  0  0
  1  2  1  0  0  0  0
  2  3  1  0  0  0  0
  3  4  1  0  0  0  0
  5  4  1  0  0  0  0
  5  6  1  1  0  0  0
  6  7  1  0  0  0  0
  7  8  2  0  0  0  0
  7  9  1  0  0  0  0
  9 10  1  0  0  0  0
 10 11  4  0  0  0  0
 11 12  4  0  0  0  0
 12 13  4  0  0  0  0
 13 14  1  0  0  0  0
 14 15  3  0  0  0  0
 13 16  4  0  0  0  0
 16 17  4  0  0  0  0
 10 17  4  0  0  0  0
  5 18  1  0  0  0  0
 19 18  1  0  0  0  0
 19  2  1  0  0  0  0
 19 20  1  6  0  0  0
 20 21  4  0  0  0  0
 21 22  4  0  0  0  0
 22 23  4  0  0  0  0
 23 24  4  0  0  0  0
 24 25  4  0  0  0  0
 25 26  4  0  0  0  0
 26 27  4  0  0  0  0
 22 27  4  0  0  0  0
 27 28  4  0  0  0  0
 20 28  4  0  0  0  0
M  STY  1   1 DAT
M  SAL   1  1  28
M  SDT   1 MRV_IMPLICIT_H                                        
M  SDD   1     0.0000    0.0000    DR    ALL  0       0  
M  SED   1 IMPL_H1
M  END
>  <CdId>
558

>  <Mol Weight>
374.448

>  <Formula>
C21H22N6O

>  <Molecule ChEMBL ID>
CHEMBL2043437

>  <Molecule Name>
GLASDEGIB

>  <Molecule Max Phase>
4

>  <Molecular Weight>
374.45

>  <#RO5 Violations>
0

>  <AlogP>
3.39

>  <Compound Key>
26, PF-04449913, diastereomer

>  <Standard Type>
IC50

>  <Standard Relation>
'>'

>  <Standard Value>
30000.0

>  <Standard Units>
nM

$$$$

  Mrv2114 03112311372D          

 33 37  0  0  0  0            999 V2000
    2.8179   -2.4134    0.0000 C   0  0  0  0  0  0  0  0  0  0  0  0
    2.1034   -2.8259    0.0000 C   0  0  0  0  0  0  0  0  0  0  0  0
    1.3889   -2.4134    0.0000 C   0  0  0  0  0  0  0  0  0  0  0  0
    0.6745   -2.8259    0.0000 C   0  0  0  0  0  0  0  0  0  0  0  0
   -0.1102   -2.5710    0.0000 C   0  0  0  0  0  0  0  0  0  0  0  0
   -0.3651   -1.7863    0.0000 C   0  0  0  0  0  0  0  0  0  0  0  0
   -1.1721   -1.6148    0.0000 C   0  0  0  0  0  0  0  0  0  0  0  0
   -1.4270   -0.8302    0.0000 C   0  0  0  0  0  0  0  0  0  0  0  0
   -0.8750   -0.2171    0.0000 C   0  0  0  0  0  0  0  0  0  0  0  0
   -0.0680   -0.3886    0.0000 N   0  0  0  0  0  0  0  0  0  0  0  0
    0.1869   -1.1732    0.0000 C   0  0  0  0  0  0  0  0  0  0  0  0
    0.9939   -1.3448    0.0000 O   0  0  0  0  0  0  0  0  0  0  0  0
   -0.5951   -3.2384    0.0000 C   0  0  0  0  0  0  0  0  0  0  0  0
   -1.4201   -3.2384    0.0000 C   0  0  0  0  0  0  0  0  0  0  0  0
   -1.8326   -2.5239    0.0000 O   0  0  0  0  0  0  0  0  0  0  0  0
   -1.8326   -3.9529    0.0000 O   0  0  0  0  0  0  0  0  0  0  0  0
   -0.1102   -3.9058    0.0000 N   0  0  0  0  0  0  0  0  0  0  0  0
   -0.3651   -4.6905    0.0000 C   0  0  0  0  0  0  0  0  0  0  0  0
    0.1869   -5.3035    0.0000 C   0  0  0  0  0  0  0  0  0  0  0  0
    0.9939   -5.1320    0.0000 C   0  0  0  0  0  0  0  0  0  0  0  0
    1.5459   -5.7451    0.0000 C   0  0  0  0  0  0  0  0  0  0  0  0
    2.3529   -5.5736    0.0000 C   0  0  0  0  0  0  0  0  0  0  0  0
    2.9049   -6.1867    0.0000 C   0  0  0  0  0  0  0  0  0  0  0  0
    2.6500   -6.9713    0.0000 C   0  0  0  0  0  0  0  0  0  0  0  0
    1.8430   -7.1428    0.0000 C   0  0  0  0  0  0  0  0  0  0  0  0
    1.2910   -6.5297    0.0000 C   0  0  0  0  0  0  0  0  0  0  0  0
    0.4840   -6.7013    0.0000 N   0  0  0  0  0  0  0  0  0  0  0  0
   -0.0680   -6.0882    0.0000 C   0  0  0  0  0  0  0  0  0  0  0  0
   -0.8750   -6.2597    0.0000 Cl  0  0  0  0  0  0  0  0  0  0  0  0
    0.6745   -3.6509    0.0000 C   0  0  0  0  0  0  0  0  0  0  0  0
    1.3889   -4.0634    0.0000 C   0  0  0  0  0  0  0  0  0  0  0  0
    2.1034   -3.6509    0.0000 C   0  0  0  0  0  0  0  0  0  0  0  0
    2.8179   -4.0634    0.0000 F   0  0  0  0  0  0  0  0  0  0  0  0
  1  2  1  0  0  0  0
  2  3  4  0  0  0  0
  3  4  4  0  0  0  0
  4  5  4  0  0  0  0
  5  6  1  0  0  0  0
  6  7  4  0  0  0  0
  7  8  4  0  0  0  0
  8  9  4  0  0  0  0
  9 10  4  0  0  0  0
 10 11  4  0  0  0  0
  6 11  4  0  0  0  0
 11 12  2  0  0  0  0
  5 13  4  0  0  0  0
 13 14  1  0  0  0  0
 14 15  2  0  0  0  0
 14 16  1  0  0  0  0
 13 17  4  0  0  0  0
 17 18  1  0  0  0  0
 18 19  1  0  0  0  0
 19 20  4  0  0  0  0
 20 21  4  0  0  0  0
 21 22  4  0  0  0  0
 22 23  4  0  0  0  0
 23 24  4  0  0  0  0
 24 25  4  0  0  0  0
 25 26  4  0  0  0  0
 21 26  4  0  0  0  0
 26 27  4  0  0  0  0
 27 28  4  0  0  0  0
 19 28  4  0  0  0  0
 28 29  1  0  0  0  0
 17 30  4  0  0  0  0
  4 30  4  0  0  0  0
 30 31  4  0  0  0  0
 31 32  4  0  0  0  0
  2 32  4  0  0  0  0
 32 33  1  0  0  0  0
M  STY  1   1 DAT
M  SAL   1  1  10
M  SDT   1 MRV_IMPLICIT_H                                        
M  SDD   1     0.0000    0.0000    DR    ALL  0       0  
M  SED   1 IMPL_H1
M  END
>  <CdId>
559

>  <Mol Weight>
461.88

>  <Formula>
C25H17ClFN3O3

>  <Molecule ChEMBL ID>
CHEMBL3092124

>  <Molecule Max Phase>
None

>  <Molecular Weight>
461.88

>  <#RO5 Violations>
1

>  <AlogP>
5.39

>  <Compound Key>
2e

>  <Standard Type>
IC50

>  <Standard Relation>
'='

>  <Standard Value>
30000.0

>  <Standard Units>
nM

$$$$

  Mrv2114 03112311372D          

 37 41  0  0  0  0            999 V2000
    0.7132   -7.2993    0.0000 C   0  0  0  0  0  0  0  0  0  0  0  0
    0.9681   -6.5147    0.0000 N   0  0  0  0  0  0  0  0  0  0  0  0
    0.4161   -5.9016    0.0000 C   0  0  0  0  0  0  0  0  0  0  0  0
   -0.3909   -6.0731    0.0000 C   0  0  0  0  0  0  0  0  0  0  0  0
    0.6710   -5.1170    0.0000 C   0  0  0  0  0  0  0  0  0  0  0  0
    1.4780   -4.9454    0.0000 O   0  0  0  0  0  0  0  0  0  0  0  0
    0.1190   -4.5039    0.0000 N   0  0  0  0  0  0  0  0  0  0  0  0
    0.3739   -3.7192    0.0000 C   0  0  0  0  0  0  0  0  0  0  0  0
   -0.1781   -3.1062    0.0000 C   0  0  0  0  0  0  0  0  0  0  0  0
    0.0768   -2.3215    0.0000 C   0  0  0  0  0  0  0  0  0  0  0  0
    0.8838   -2.1500    0.0000 C   0  0  0  0  0  0  0  0  0  0  0  0
    1.1387   -1.3654    0.0000 C   0  0  0  0  0  0  0  0  0  0  0  0
    0.6538   -0.6979    0.0000 C   0  0  0  0  0  0  0  0  0  0  0  0
   -0.1712   -0.6979    0.0000 C   0  0  0  0  0  0  0  0  0  0  0  0
   -0.5837   -1.4124    0.0000 C   0  0  0  0  0  0  0  0  0  0  0  0
   -1.4087   -1.4124    0.0000 C   0  0  0  0  0  0  0  0  0  0  0  0
   -1.8212   -0.6979    0.0000 N   0  0  0  0  0  0  0  0  0  0  0  0
   -1.4087    0.0165    0.0000 C   0  0  0  0  0  0  0  0  0  0  0  0
   -0.5837    0.0165    0.0000 C   0  0  0  0  0  0  0  0  0  0  0  0
    1.1387   -0.0305    0.0000 N   0  0  0  0  0  0  0  0  0  0  0  0
    1.9233   -0.2854    0.0000 C   0  0  0  0  0  0  0  0  0  0  0  0
    2.6378    0.1271    0.0000 C   0  0  0  0  0  0  0  0  0  0  0  0
    3.3523   -0.2854    0.0000 C   0  0  0  0  0  0  0  0  0  0  0  0
    4.0668    0.1271    0.0000 C   0  0  0  0  0  0  0  0  0  0  0  0
    3.3523   -1.1104    0.0000 C   0  0  0  0  0  0  0  0  0  0  0  0
    2.6378   -1.5229    0.0000 C   0  0  0  0  0  0  0  0  0  0  0  0
    1.9233   -1.1104    0.0000 N   0  0  0  0  0  0  0  0  0  0  0  0
    1.4358   -2.7631    0.0000 C   0  0  0  0  0  0  0  0  0  0  0  0
    2.2428   -2.5916    0.0000 C   0  0  0  0  0  0  0  0  0  0  0  0
    3.0498   -2.4200    0.0000 C   0  0  0  0  0  0  0  0  0  0  0  0
    3.8567   -2.2485    0.0000 C   0  0  0  0  0  0  0  0  0  0  0  0
    4.1117   -1.4639    0.0000 C   0  0  0  0  0  0  0  0  0  0  0  0
    4.9186   -1.2924    0.0000 C   0  0  0  0  0  0  0  0  0  0  0  0
    5.4707   -1.9055    0.0000 C   0  0  0  0  0  0  0  0  0  0  0  0
    5.2157   -2.6901    0.0000 C   0  0  0  0  0  0  0  0  0  0  0  0
    4.4088   -2.8616    0.0000 C   0  0  0  0  0  0  0  0  0  0  0  0
    1.1809   -3.5477    0.0000 N   0  0  0  0  0  0  0  0  0  0  0  0
  1  2  1  0  0  0  0
  2  3  1  0  0  0  0
  3  4  1  0  0  0  0
  3  5  1  0  0  0  0
  5  6  2  0  0  0  0
  5  7  1  0  0  0  0
  7  8  1  0  0  0  0
  8  9  4  0  0  0  0
  9 10  4  0  0  0  0
 10 11  4  0  0  0  0
 11 12  1  0  0  0  0
 12 13  4  0  0  0  0
 13 14  1  0  0  0  0
 14 15  4  0  0  0  0
 15 16  4  0  0  0  0
 16 17  4  0  0  0  0
 17 18  4  0  0  0  0
 18 19  4  0  0  0  0
 14 19  4  0  0  0  0
 13 20  4  0  0  0  0
 20 21  4  0  0  0  0
 21 22  4  0  0  0  0
 22 23  4  0  0  0  0
 23 24  1  0  0  0  0
 23 25  4  0  0  0  0
 25 26  4  0  0  0  0
 26 27  4  0  0  0  0
 12 27  4  0  0  0  0
 21 27  4  0  0  0  0
 11 28  4  0  0  0  0
 28 29  1  0  0  0  0
 29 30  3  0  0  0  0
 30 31  1  0  0  0  0
 31 32  4  0  0  0  0
 32 33  4  0  0  0  0
 33 34  4  0  0  0  0
 34 35  4  0  0  0  0
 35 36  4  0  0  0  0
 31 36  4  0  0  0  0
 28 37  4  0  0  0  0
  8 37  4  0  0  0  0
M  END
>  <CdId>
560

>  <Mol Weight>
486.579

>  <Formula>
C30H26N6O

>  <Molecule ChEMBL ID>
CHEMBL3970302

>  <Molecule Max Phase>
None

>  <Molecular Weight>
486.58

>  <#RO5 Violations>
0

>  <AlogP>
4.71

>  <Compound Key>
BDBM253990

>  <Standard Type>
IC50

>  <Standard Relation>
'='

>  <Standard Value>
1700.0

>  <Standard Units>
nM

$$$$

  Mrv2114 03112311372D          

 25 28  0  0  0  0            999 V2000
    3.2789    3.7125    0.0000 C   0  0  0  0  0  0  0  0  0  0  0  0
    2.5645    3.3000    0.0000 C   0  0  0  0  0  0  0  0  0  0  0  0
    1.8500    3.7125    0.0000 C   0  0  0  0  0  0  0  0  0  0  0  0
    1.1355    3.3000    0.0000 N   0  0  0  0  0  0  0  0  0  0  0  0
    1.1355    2.4750    0.0000 C   0  0  0  0  0  0  0  0  0  0  0  0
    0.4210    2.0625    0.0000 C   0  0  0  0  0  0  0  0  0  0  0  0
    0.4210    1.2375    0.0000 C   0  0  0  0  0  0  0  0  0  0  0  0
   -0.2934    0.8250    0.0000 C   0  0  0  0  0  0  0  0  0  0  0  0
   -0.2934   -0.0000    0.0000 F   0  0  0  0  0  0  0  0  0  0  0  0
   -1.0079    1.2375    0.0000 C   0  0  0  0  0  0  0  0  0  0  0  0
   -1.0079    2.0625    0.0000 C   0  0  0  0  0  0  0  0  0  0  0  0
   -0.2934    2.4750    0.0000 C   0  0  0  0  0  0  0  0  0  0  0  0
   -0.2934    3.3000    0.0000 F   0  0  0  0  0  0  0  0  0  0  0  0
    1.8500    2.0625    0.0000 C   0  0  0  0  0  0  0  0  0  0  0  0
    2.5645    2.4750    0.0000 C   0  0  0  0  0  0  0  0  0  0  0  0
    3.2789    2.0625    0.0000 N   0  0  0  0  0  0  0  0  0  0  0  0
    3.2789    1.2375    0.0000 C   0  0  0  0  0  0  0  0  0  0  0  0
    3.9934    0.8250    0.0000 C   0  0  0  0  0  0  0  0  0  0  0  0
    3.9934    0.0000    0.0000 C   0  0  0  0  0  0  0  0  0  0  0  0
    3.2789   -0.4125    0.0000 N   0  0  0  0  0  0  0  0  0  0  0  0
    2.5645    0.0000    0.0000 C   0  0  0  0  0  0  0  0  0  0  0  0
    1.7798   -0.2549    0.0000 C   0  0  0  0  0  0  0  0  0  0  0  0
    1.2949    0.4125    0.0000 N   0  0  0  0  0  0  0  0  0  0  0  0
    1.7798    1.0799    0.0000 N   0  0  0  0  0  0  0  0  0  0  0  0
    2.5645    0.8250    0.0000 C   0  0  0  0  0  0  0  0  0  0  0  0
  1  2  1  0  0  0  0
  2  3  4  0  0  0  0
  3  4  4  0  0  0  0
  4  5  4  0  0  0  0
  5  6  1  0  0  0  0
  6  7  4  0  0  0  0
  7  8  4  0  0  0  0
  8  9  1  0  0  0  0
  8 10  4  0  0  0  0
 10 11  4  0  0  0  0
 11 12  4  0  0  0  0
  6 12  4  0  0  0  0
 12 13  1  0  0  0  0
  5 14  4  0  0  0  0
 14 15  4  0  0  0  0
  2 15  4  0  0  0  0
 15 16  1  0  0  0  0
 16 17  1  0  0  0  0
 17 18  4  0  0  0  0
 18 19  4  0  0  0  0
 19 20  4  0  0  0  0
 20 21  4  0  0  0  0
 21 22  4  0  0  0  0
 22 23  4  0  0  0  0
 23 24  4  0  0  0  0
 24 25  4  0  0  0  0
 17 25  4  0  0  0  0
 21 25  4  0  0  0  0
M  STY  1   1 DAT
M  SAL   1  1  24
M  SDT   1 MRV_IMPLICIT_H                                        
M  SDD   1     0.0000    0.0000    DR    ALL  0       0  
M  SED   1 IMPL_H1
M  END
>  <CdId>
561

>  <Mol Weight>
337.334

>  <Formula>
C18H13F2N5

>  <Molecule ChEMBL ID>
CHEMBL4102696

>  <Molecule Max Phase>
None

>  <Molecular Weight>
337.33

>  <#RO5 Violations>
0

>  <AlogP>
4.35

>  <Compound Key>
16

>  <Standard Type>
IC50

>  <Standard Relation>
'='

>  <Standard Value>
316.23

>  <Standard Units>
nM

$$$$

  Mrv2114 03112311372D          

 22 24  0  0  0  0            999 V2000
    1.4289   -2.4750    0.0000 O   0  0  0  0  0  0  0  0  0  0  0  0
    1.4289   -1.6500    0.0000 C   0  0  0  0  0  0  0  0  0  0  0  0
    0.7145   -1.2375    0.0000 C   0  0  0  0  0  0  0  0  0  0  0  0
    0.0000   -1.6500    0.0000 O   0  0  0  0  0  0  0  0  0  0  0  0
    0.7145   -0.4125    0.0000 C   0  0  0  0  0  0  0  0  0  0  0  0
    0.0000    0.0000    0.0000 C   0  0  0  0  0  0  0  0  0  0  0  0
   -0.7145   -0.4125    0.0000 C   0  0  0  0  0  0  0  0  0  0  0  0
   -1.4289    0.0000    0.0000 C   0  0  0  0  0  0  0  0  0  0  0  0
   -1.4289    0.8250    0.0000 C   0  0  0  0  0  0  0  0  0  0  0  0
   -2.1434    1.2375    0.0000 O   0  0  0  0  0  0  0  0  0  0  0  0
   -0.7145    1.2375    0.0000 C   0  0  0  0  0  0  0  0  0  0  0  0
   -0.7145    2.0625    0.0000 O   0  0  0  0  0  0  0  0  0  0  0  0
    0.0000    0.8250    0.0000 C   0  0  0  0  0  0  0  0  0  0  0  0
    1.4289    0.0000    0.0000 O   0  0  0  0  0  0  0  0  0  0  0  0
    2.1434   -0.4125    0.0000 C   0  0  0  0  0  0  0  0  0  0  0  0
    2.8579    0.0000    0.0000 C   0  0  0  0  0  0  0  0  0  0  0  0
    3.5724   -0.4125    0.0000 C   0  0  0  0  0  0  0  0  0  0  0  0
    4.2868   -0.0000    0.0000 O   0  0  0  0  0  0  0  0  0  0  0  0
    3.5724   -1.2375    0.0000 C   0  0  0  0  0  0  0  0  0  0  0  0
    2.8579   -1.6500    0.0000 C   0  0  0  0  0  0  0  0  0  0  0  0
    2.8579   -2.4750    0.0000 O   0  0  0  0  0  0  0  0  0  0  0  0
    2.1434   -1.2375    0.0000 C   0  0  0  0  0  0  0  0  0  0  0  0
  1  2  2  0  0  0  0
  2  3  4  0  0  0  0
  3  4  1  0  0  0  0
  3  5  4  0  0  0  0
  5  6  1  0  0  0  0
  6  7  4  0  0  0  0
  7  8  4  0  0  0  0
  8  9  4  0  0  0  0
  9 10  1  0  0  0  0
  9 11  4  0  0  0  0
 11 12  1  0  0  0  0
 11 13  4  0  0  0  0
  6 13  4  0  0  0  0
  5 14  4  0  0  0  0
 14 15  4  0  0  0  0
 15 16  4  0  0  0  0
 16 17  4  0  0  0  0
 17 18  1  0  0  0  0
 17 19  4  0  0  0  0
 19 20  4  0  0  0  0
 20 21  1  0  0  0  0
 20 22  4  0  0  0  0
  2 22  4  0  0  0  0
 15 22  4  0  0  0  0
M  END
>  <CdId>
562

>  <Mol Weight>
302.238

>  <Formula>
C15H10O7

>  <Molecule ChEMBL ID>
CHEMBL50

>  <Molecule Name>
QUERCETIN

>  <Molecule Max Phase>
3

>  <Molecular Weight>
302.24

>  <#RO5 Violations>
0

>  <AlogP>
1.99

>  <Compound Key>
Quercetin

>  <Standard Type>
IC50

>  <Standard Relation>
'='

>  <Standard Value>
3500.0

>  <Standard Units>
nM

$$$$

  Mrv2114 03112311372D          

 29 33  0  0  1  0            999 V2000
    1.4358   -2.7631    0.0000 C   0  0  0  0  0  0  0  0  0  0  0  0
    0.8838   -2.1500    0.0000 C   0  0  0  0  0  0  0  0  0  0  0  0
    1.1387   -1.3654    0.0000 N   0  0  0  0  0  0  0  0  0  0  0  0
    0.6538   -0.6979    0.0000 C   0  0  0  0  0  0  0  0  0  0  0  0
   -0.1712   -0.6979    0.0000 C   0  0  0  0  0  0  0  0  0  0  0  0
   -0.5837   -1.4124    0.0000 C   0  0  0  0  0  0  0  0  0  0  0  0
   -1.4087   -1.4124    0.0000 N   0  0  0  0  0  0  0  0  0  0  0  0
   -1.8212   -0.6979    0.0000 C   0  0  0  0  0  0  0  0  0  0  0  0
   -2.6462   -0.6979    0.0000 C   0  0  0  0  0  0  0  0  0  0  0  0
   -1.4087    0.0165    0.0000 N   0  0  0  0  0  0  0  0  0  0  0  0
   -0.5837    0.0165    0.0000 C   0  0  0  0  0  0  0  0  0  0  0  0
    1.1387   -0.0305    0.0000 N   0  0  0  0  0  0  0  0  0  0  0  0
    1.9233   -0.2854    0.0000 C   0  0  0  0  0  0  0  0  0  0  0  0
    2.6378    0.1271    0.0000 C   0  0  0  0  0  0  0  0  0  0  0  0
    2.6378    0.9521    0.0000 N   0  0  0  0  0  0  0  0  0  0  0  0
    1.9233    1.3646    0.0000 C   0  0  1  0  0  0  0  0  0  0  0  0
    1.1697    1.0290    0.0000 C   0  0  0  0  0  0  0  0  0  0  0  0
    0.6176    1.6421    0.0000 C   0  0  0  0  0  0  0  0  0  0  0  0
    1.0301    2.3566    0.0000 N   0  0  0  0  0  0  0  0  0  0  0  0
    0.6946    3.1102    0.0000 C   0  0  0  0  0  0  0  0  0  0  0  0
   -0.1259    3.1965    0.0000 O   0  0  0  0  0  0  0  0  0  0  0  0
    1.1795    3.7777    0.0000 C   0  0  0  0  0  0  0  0  0  0  0  0
    1.2657    4.5982    0.0000 C   0  0  0  0  0  0  0  0  0  0  0  0
    1.9332    4.1132    0.0000 C   0  0  0  0  0  0  0  0  0  0  0  0
    1.8371    2.1850    0.0000 C   0  0  0  0  0  0  0  0  0  0  0  0
    3.3523   -0.2854    0.0000 N   0  0  0  0  0  0  0  0  0  0  0  0
    3.3523   -1.1104    0.0000 C   0  0  0  0  0  0  0  0  0  0  0  0
    2.6378   -1.5229    0.0000 N   0  0  0  0  0  0  0  0  0  0  0  0
    1.9233   -1.1104    0.0000 C   0  0  0  0  0  0  0  0  0  0  0  0
  1  2  1  0  0  0  0
  2  3  1  0  0  0  0
  3  4  4  0  0  0  0
  4  5  1  0  0  0  0
  5  6  4  0  0  0  0
  6  7  4  0  0  0  0
  7  8  4  0  0  0  0
  8  9  1  0  0  0  0
  8 10  4  0  0  0  0
 10 11  4  0  0  0  0
  5 11  4  0  0  0  0
  4 12  4  0  0  0  0
 12 13  4  0  0  0  0
 13 14  4  0  0  0  0
 14 15  1  0  0  0  0
 16 15  1  1  0  0  0
 16 17  1  0  0  0  0
 17 18  1  0  0  0  0
 18 19  1  0  0  0  0
 19 20  1  0  0  0  0
 20 21  2  0  0  0  0
 20 22  1  0  0  0  0
 22 23  1  0  0  0  0
 23 24  1  0  0  0  0
 22 24  1  0  0  0  0
 19 25  1  0  0  0  0
 16 25  1  0  0  0  0
 14 26  4  0  0  0  0
 26 27  4  0  0  0  0
 27 28  4  0  0  0  0
 28 29  4  0  0  0  0
 13 29  4  0  0  0  0
  3 29  4  0  0  0  0
M  END
>  <CdId>
563

>  <Mol Weight>
392.467

>  <Formula>
C20H24N8O

>  <Molecule ChEMBL ID>
CHEMBL4853960

>  <Molecule Max Phase>
None

>  <Molecular Weight>
392.47

>  <#RO5 Violations>
0

>  <AlogP>
2.03

>  <Compound Key>
3c

>  <Standard Type>
IC50

>  <Standard Relation>
'>'

>  <Standard Value>
50000.0

>  <Standard Units>
nM

$$$$

  Mrv2114 03112311372D          

 29 34  0  0  0  0            999 V2000
    3.3523   -0.2854    0.0000 O   0  0  0  0  0  0  0  0  0  0  0  0
    3.3523   -1.1104    0.0000 C   0  0  0  0  0  0  0  0  0  0  0  0
    4.0668   -1.5229    0.0000 C   0  0  0  0  0  0  0  0  0  0  0  0
    4.7812   -1.1104    0.0000 C   0  0  0  0  0  0  0  0  0  0  0  0
    5.4957   -1.5229    0.0000 C   0  0  0  0  0  0  0  0  0  0  0  0
    5.4957   -2.3479    0.0000 C   0  0  0  0  0  0  0  0  0  0  0  0
    4.7812   -2.7604    0.0000 C   0  0  0  0  0  0  0  0  0  0  0  0
    4.0668   -2.3479    0.0000 C   0  0  0  0  0  0  0  0  0  0  0  0
    3.3523   -2.7604    0.0000 O   0  0  0  0  0  0  0  0  0  0  0  0
    2.6378   -2.3479    0.0000 C   0  0  0  0  0  0  0  0  0  0  0  0
    1.8532   -2.6029    0.0000 C   0  0  0  0  0  0  0  0  0  0  0  0
    1.5983   -3.3875    0.0000 C   0  0  0  0  0  0  0  0  0  0  0  0
    2.1503   -4.0006    0.0000 C   0  0  0  0  0  0  0  0  0  0  0  0
    2.9573   -3.8291    0.0000 C   0  0  0  0  0  0  0  0  0  0  0  0
    3.5093   -4.4422    0.0000 C   0  0  0  0  0  0  0  0  0  0  0  0
    3.2544   -5.2268    0.0000 C   0  0  0  0  0  0  0  0  0  0  0  0
    2.4474   -5.3983    0.0000 C   0  0  0  0  0  0  0  0  0  0  0  0
    1.8953   -4.7852    0.0000 C   0  0  0  0  0  0  0  0  0  0  0  0
    2.3611   -6.2188    0.0000 O   0  0  0  0  0  0  0  0  0  0  0  0
    3.1148   -6.5544    0.0000 C   0  0  0  0  0  0  0  0  0  0  0  0
    3.6669   -5.9413    0.0000 O   0  0  0  0  0  0  0  0  0  0  0  0
    1.3683   -1.9354    0.0000 N   0  0  0  0  0  0  0  0  0  0  0  0
    1.8532   -1.2680    0.0000 C   0  0  0  0  0  0  0  0  0  0  0  0
    1.5983   -0.4834    0.0000 C   0  0  0  0  0  0  0  0  0  0  0  0
    0.8136   -0.2284    0.0000 N   0  0  0  0  0  0  0  0  0  0  0  0
    0.8136    0.5966    0.0000 C   0  0  0  0  0  0  0  0  0  0  0  0
    1.5983    0.8515    0.0000 C   0  0  0  0  0  0  0  0  0  0  0  0
    2.0832    0.1841    0.0000 S   0  0  0  0  0  0  0  0  0  0  0  0
    2.6378   -1.5229    0.0000 C   0  0  0  0  0  0  0  0  0  0  0  0
  1  2  2  0  0  0  0
  2  3  4  0  0  0  0
  3  4  4  0  0  0  0
  4  5  4  0  0  0  0
  5  6  4  0  0  0  0
  6  7  4  0  0  0  0
  7  8  4  0  0  0  0
  3  8  4  0  0  0  0
  8  9  4  0  0  0  0
  9 10  4  0  0  0  0
 10 11  4  0  0  0  0
 11 12  1  0  0  0  0
 12 13  1  0  0  0  0
 13 14  4  0  0  0  0
 14 15  4  0  0  0  0
 15 16  4  0  0  0  0
 16 17  4  0  0  0  0
 17 18  4  0  0  0  0
 13 18  4  0  0  0  0
 17 19  1  0  0  0  0
 19 20  1  0  0  0  0
 20 21  1  0  0  0  0
 16 21  1  0  0  0  0
 11 22  4  0  0  0  0
 22 23  4  0  0  0  0
 23 24  1  0  0  0  0
 24 25  4  0  0  0  0
 25 26  4  0  0  0  0
 26 27  4  0  0  0  0
 27 28  4  0  0  0  0
 24 28  4  0  0  0  0
 23 29  4  0  0  0  0
  2 29  4  0  0  0  0
 10 29  4  0  0  0  0
M  STY  1   1 DAT
M  SAL   1  1  22
M  SDT   1 MRV_IMPLICIT_H                                        
M  SDD   1     0.0000    0.0000    DR    ALL  0       0  
M  SED   1 IMPL_H1
M  END
>  <CdId>
564

>  <Mol Weight>
402.42

>  <Formula>
C22H14N2O4S

>  <Molecule ChEMBL ID>
CHEMBL4099219

>  <Molecule Max Phase>
None

>  <Molecular Weight>
402.43

>  <#RO5 Violations>
0

>  <AlogP>
4.72

>  <Compound Key>
2

>  <Standard Type>
IC50

>  <Standard Relation>
'>'

>  <Standard Value>
25000.0

>  <Standard Units>
nM

$$$$

  Mrv2114 03112311372D          

 25 29  0  0  0  0            999 V2000
    1.6471   -2.6481    0.0000 O   0  0  0  0  0  0  0  0  0  0  0  0
    0.9977   -3.1569    0.0000 C   0  0  0  0  0  0  0  0  0  0  0  0
    0.2323   -2.8490    0.0000 C   0  0  0  0  0  0  0  0  0  0  0  0
    0.1163   -2.0322    0.0000 C   0  0  0  0  0  0  0  0  0  0  0  0
   -0.6942   -1.8780    0.0000 C   0  0  0  0  0  0  0  0  0  0  0  0
   -1.2329   -2.5028    0.0000 C   0  0  0  0  0  0  0  0  0  0  0  0
   -2.0434   -2.3487    0.0000 C   0  0  0  0  0  0  0  0  0  0  0  0
   -2.3151   -1.5697    0.0000 C   0  0  0  0  0  0  0  0  0  0  0  0
   -1.7764   -0.9449    0.0000 C   0  0  0  0  0  0  0  0  0  0  0  0
   -0.9659   -1.0991    0.0000 C   0  0  0  0  0  0  0  0  0  0  0  0
    0.8517   -1.6585    0.0000 C   0  0  0  0  0  0  0  0  0  0  0  0
    1.5873   -2.0322    0.0000 C   0  0  0  0  0  0  0  0  0  0  0  0
    2.0368   -1.2419    0.0000 C   0  0  0  0  0  0  0  0  0  0  0  0
    1.3012   -1.6156    0.0000 C   0  0  0  0  0  0  0  0  0  0  0  0
    0.5657   -1.2419    0.0000 C   0  0  0  0  0  0  0  0  0  0  0  0
    0.5657   -0.4945    0.0000 C   0  0  0  0  0  0  0  0  0  0  0  0
    1.3012   -0.1208    0.0000 C   0  0  0  0  0  0  0  0  0  0  0  0
    0.8517   -0.9111    0.0000 C   0  0  0  0  0  0  0  0  0  0  0  0
    2.0368   -0.4945    0.0000 C   0  0  0  0  0  0  0  0  0  0  0  0
    2.7400   -0.0630    0.0000 O   0  0  0  0  0  0  0  0  0  0  0  0
    1.1137   -3.9737    0.0000 N   0  0  0  0  0  0  0  0  0  0  0  0
    1.7733   -4.4693    0.0000 C   0  0  0  0  0  0  0  0  0  0  0  0
    1.2778   -5.1289    0.0000 C   0  0  0  0  0  0  0  0  0  0  0  0
    1.3938   -5.9457    0.0000 O   0  0  0  0  0  0  0  0  0  0  0  0
    0.6182   -4.6333    0.0000 C   0  0  0  0  0  0  0  0  0  0  0  0
  1  2  2  0  0  0  0
  2  3  1  0  0  0  0
  3  4  1  0  0  0  0
  4  5  1  0  0  0  0
  5  6  4  0  0  0  0
  6  7  4  0  0  0  0
  7  8  4  0  0  0  0
  8  9  4  0  0  0  0
  9 10  4  0  0  0  0
  5 10  4  0  0  0  0
  4 11  1  0  0  0  0
 11 12  1  0  0  0  0
 12 13  1  0  0  0  0
 13 14  1  0  0  0  0
 14 15  1  0  0  0  0
  4 15  1  0  0  0  0
 17 19  1  0  0  0  0
 16 17  1  0  0  0  0
 17 18  1  0  0  0  0
 11 18  1  0  0  0  0
 15 16  1  0  0  0  0
 13 19  1  0  0  0  0
 19 20  1  0  0  0  0
  2 21  1  0  0  0  0
 21 22  1  0  0  0  0
 22 23  1  0  0  0  0
 23 24  1  0  0  0  0
 23 25  1  0  0  0  0
 21 25  1  0  0  0  0
M  END
>  <CdId>
565

>  <Mol Weight>
341.451

>  <Formula>
C21H27NO3

>  <Molecule ChEMBL ID>
CHEMBL4080667

>  <Molecule Max Phase>
None

>  <Molecular Weight>
341.45

>  <#RO5 Violations>
0

>  <AlogP>
1.94

>  <Compound Key>
6n-2; Enantiomer-1; BMS-816336

>  <Standard Type>
IC50

>  <Standard Relation>
'>'

>  <Standard Value>
40000.0

>  <Standard Units>
nM

$$$$

  Mrv2114 03112311372D          

 23 24  0  0  0  0            999 V2000
    2.8579    0.0000    0.0000 C   0  0  0  0  0  0  0  0  0  0  0  0
    3.5724    0.4125    0.0000 C   0  0  0  0  0  0  0  0  0  0  0  0
    4.2868    0.0000    0.0000 C   0  0  0  0  0  0  0  0  0  0  0  0
    5.0013    0.4125    0.0000 C   0  0  0  0  0  0  0  0  0  0  0  0
    5.7158    0.0000    0.0000 N   0  0  0  0  0  0  0  0  0  0  0  0
    6.4302    0.4125    0.0000 C   0  0  0  0  0  0  0  0  0  0  0  0
    6.4302    1.2375    0.0000 N   0  0  0  0  0  0  0  0  0  0  0  0
    7.1447    1.6500    0.0000 C   0  0  0  0  0  0  0  0  0  0  0  0
    7.1447    2.4750    0.0000 N   0  0  0  0  0  0  0  0  0  0  0  0
    7.8592    1.2375    0.0000 N   0  0  0  0  0  0  0  0  0  0  0  0
    7.8592    0.4125    0.0000 C   0  0  0  0  0  0  0  0  0  0  0  0
    8.5737    0.0000    0.0000 C   0  0  0  0  0  0  0  0  0  0  0  0
    8.5737   -0.8250    0.0000 C   0  0  0  0  0  0  0  0  0  0  0  0
    7.8592   -1.2375    0.0000 C   0  0  0  0  0  0  0  0  0  0  0  0
    7.1447   -0.8250    0.0000 C   0  0  0  0  0  0  0  0  0  0  0  0
    6.4302   -1.2375    0.0000 C   0  0  0  0  0  0  0  0  0  0  0  0
    5.7158   -0.8250    0.0000 O   0  0  0  0  0  0  0  0  0  0  0  0
    6.4302   -2.0625    0.0000 N   0  0  0  0  0  0  0  0  0  0  0  0
    5.7158   -2.4750    0.0000 C   0  0  0  0  0  0  0  0  0  0  0  0
    7.1447   -2.4750    0.0000 C   0  0  0  0  0  0  0  0  0  0  0  0
    7.8592   -2.0625    0.0000 C   0  0  0  0  0  0  0  0  0  0  0  0
    7.1447   -3.3000    0.0000 C   0  0  0  0  0  0  0  0  0  0  0  0
    7.1447    0.0000    0.0000 C   0  0  0  0  0  0  0  0  0  0  0  0
  1  2  1  0  0  0  0
  2  3  1  0  0  0  0
  3  4  1  0  0  0  0
  4  5  1  0  0  0  0
  5  6  1  0  0  0  0
  6  7  4  0  0  0  0
  7  8  4  0  0  0  0
  8  9  1  0  0  0  0
  8 10  4  0  0  0  0
 10 11  4  0  0  0  0
 11 12  4  0  0  0  0
 12 13  4  0  0  0  0
 13 14  4  0  0  0  0
 14 15  4  0  0  0  0
 15 16  1  0  0  0  0
 16 17  2  0  0  0  0
 16 18  1  0  0  0  0
 18 19  1  0  0  0  0
 18 20  1  0  0  0  0
 20 21  1  0  0  0  0
 20 22  1  0  0  0  0
 15 23  4  0  0  0  0
  6 23  4  0  0  0  0
 11 23  4  0  0  0  0
M  END
>  <CdId>
566

>  <Mol Weight>
315.421

>  <Formula>
C17H25N5O

>  <Molecule ChEMBL ID>
CHEMBL4214206

>  <Molecule Max Phase>
None

>  <Molecular Weight>
315.42

>  <#RO5 Violations>
0

>  <AlogP>
2.9

>  <Compound Key>
44

>  <Standard Type>
IC50

$$$$

  Mrv2114 03112311372D          

 28 31  0  0  1  0            999 V2000
    2.1612    0.1891    0.0000 C   0  0  0  0  0  0  0  0  0  0  0  0
    2.7932    0.7194    0.0000 C   0  0  1  0  0  0  0  0  0  0  0  0
    2.6499    1.5319    0.0000 C   0  0  0  0  0  0  0  0  0  0  0  0
    3.2819    2.0622    0.0000 O   0  0  0  0  0  0  0  0  0  0  0  0
    4.0572    1.7800    0.0000 C   0  0  0  0  0  0  0  0  0  0  0  0
    4.2004    0.9676    0.0000 C   0  0  0  0  0  0  0  0  0  0  0  0
    3.5685    0.4373    0.0000 N   0  0  0  0  0  0  0  0  0  0  0  0
    3.7117   -0.3752    0.0000 C   0  0  0  0  0  0  0  0  0  0  0  0
    4.4870   -0.6574    0.0000 N   0  0  0  0  0  0  0  0  0  0  0  0
    4.6302   -1.4698    0.0000 C   0  0  0  0  0  0  0  0  0  0  0  0
    5.4055   -1.7520    0.0000 C   0  0  0  0  0  0  0  0  0  0  0  0
    6.0375   -1.2217    0.0000 C   0  0  0  0  0  0  0  0  0  0  0  0
    6.8127   -1.5039    0.0000 N   0  0  0  0  0  0  0  0  0  0  0  0
    6.9560   -2.3163    0.0000 C   0  0  0  0  0  0  0  0  0  0  0  0
    7.7312   -2.5985    0.0000 N   0  0  0  0  0  0  0  0  0  0  0  0
    6.3240   -2.8466    0.0000 C   0  0  0  0  0  0  0  0  0  0  0  0
    5.5487   -2.5645    0.0000 C   0  0  0  0  0  0  0  0  0  0  0  0
    4.9167   -3.0948    0.0000 F   0  0  0  0  0  0  0  0  0  0  0  0
    3.9982   -2.0001    0.0000 C   0  0  0  0  0  0  0  0  0  0  0  0
    3.2230   -1.7180    0.0000 C   0  0  0  0  0  0  0  0  0  0  0  0
    2.5910   -2.2483    0.0000 C   0  0  0  0  0  0  0  0  0  0  0  0
    1.9590   -1.7180    0.0000 S   0  0  0  0  0  0  0  0  0  0  0  0
    1.3270   -1.1877    0.0000 C   0  0  0  0  0  0  0  0  0  0  0  0
    1.4287   -2.3500    0.0000 O   0  0  0  0  0  0  0  0  0  0  0  0
    2.4893   -1.0860    0.0000 O   0  0  0  0  0  0  0  0  0  0  0  0
    3.0035   -2.9627    0.0000 C   0  0  0  0  0  0  0  0  0  0  0  0
    2.1785   -2.9627    0.0000 C   0  0  0  0  0  0  0  0  0  0  0  0
    3.0797   -0.9055    0.0000 N   0  0  0  0  0  0  0  0  0  0  0  0
  2  1  1  1  0  0  0
  2  3  1  0  0  0  0
  3  4  1  0  0  0  0
  4  5  1  0  0  0  0
  5  6  1  0  0  0  0
  6  7  1  0  0  0  0
  2  7  1  0  0  0  0
  7  8  1  0  0  0  0
  8  9  4  0  0  0  0
  9 10  4  0  0  0  0
 10 11  1  0  0  0  0
 11 12  4  0  0  0  0
 12 13  4  0  0  0  0
 13 14  4  0  0  0  0
 14 15  1  0  0  0  0
 14 16  4  0  0  0  0
 16 17  4  0  0  0  0
 11 17  4  0  0  0  0
 17 18  1  0  0  0  0
 10 19  4  0  0  0  0
 19 20  4  0  0  0  0
 20 21  1  0  0  0  0
 21 22  1  0  0  0  0
 22 23  1  0  0  0  0
 22 24  2  0  0  0  0
 22 25  2  0  0  0  0
 21 26  1  0  0  0  0
 26 27  1  0  0  0  0
 21 27  1  0  0  0  0
 20 28  4  0  0  0  0
  8 28  4  0  0  0  0
M  END
>  <CdId>
567

>  <Mol Weight>
407.46

>  <Formula>
C18H22FN5O3S

>  <Molecule ChEMBL ID>
CHEMBL4211915

>  <Molecule Max Phase>
None

>  <Molecular Weight>
407.47

>  <#RO5 Violations>
0

>  <AlogP>
1.52

>  <Compound Key>
26

>  <Standard Type>
IC50

>  <Standard Relation>
'>'

>  <Standard Value>
10000.0

>  <Standard Units>
nM

$$$$

  Mrv2114 03112311372D          

 31 34  0  0  0  0            999 V2000
    0.0000    0.0000    0.0000 Cl  0  0  0  0  0  0  0  0  0  0  0  0
    4.3779   -3.4977    0.0000 N   0  0  0  0  0  0  0  0  0  0  0  0
    3.8259   -2.8846    0.0000 C   0  0  0  0  0  0  0  0  0  0  0  0
    4.0808   -2.0999    0.0000 C   0  0  0  0  0  0  0  0  0  0  0  0
    3.5288   -1.4868    0.0000 C   0  0  0  0  0  0  0  0  0  0  0  0
    3.7837   -0.7022    0.0000 C   0  0  0  0  0  0  0  0  0  0  0  0
    4.5907   -0.5307    0.0000 C   0  0  0  0  0  0  0  0  0  0  0  0
    4.8456    0.2539    0.0000 N   0  0  0  0  0  0  0  0  0  0  0  0
    4.3607    0.9214    0.0000 C   0  0  0  0  0  0  0  0  0  0  0  0
    3.5357    0.9214    0.0000 C   0  0  0  0  0  0  0  0  0  0  0  0
    3.1232    0.2069    0.0000 C   0  0  0  0  0  0  0  0  0  0  0  0
    2.2982    0.2069    0.0000 C   0  0  0  0  0  0  0  0  0  0  0  0
    1.8857    0.9214    0.0000 C   0  0  0  0  0  0  0  0  0  0  0  0
    2.2982    1.6358    0.0000 N   0  0  0  0  0  0  0  0  0  0  0  0
    3.1232    1.6358    0.0000 C   0  0  0  0  0  0  0  0  0  0  0  0
    3.5357    2.3503    0.0000 N   0  0  0  0  0  0  0  0  0  0  0  0
    4.8456    1.5888    0.0000 N   0  0  0  0  0  0  0  0  0  0  0  0
    5.6303    1.3339    0.0000 C   0  0  0  0  0  0  0  0  0  0  0  0
    6.3447    1.7464    0.0000 C   0  0  0  0  0  0  0  0  0  0  0  0
    7.0592    1.3339    0.0000 C   0  0  0  0  0  0  0  0  0  0  0  0
    7.0592    0.5089    0.0000 C   0  0  0  0  0  0  0  0  0  0  0  0
    7.7737    0.0964    0.0000 C   0  0  0  0  0  0  0  0  0  0  0  0
    8.4881    0.5089    0.0000 C   0  0  0  0  0  0  0  0  0  0  0  0
    9.2026    0.0964    0.0000 C   0  0  0  0  0  0  0  0  0  0  0  0
    9.2026   -0.7286    0.0000 C   0  0  0  0  0  0  0  0  0  0  0  0
    8.4881   -1.1411    0.0000 C   0  0  0  0  0  0  0  0  0  0  0  0
    7.7737   -0.7286    0.0000 C   0  0  0  0  0  0  0  0  0  0  0  0
    6.3447    0.0964    0.0000 N   0  0  0  0  0  0  0  0  0  0  0  0
    5.6303    0.5089    0.0000 C   0  0  0  0  0  0  0  0  0  0  0  0
    5.1427   -1.1438    0.0000 C   0  0  0  0  0  0  0  0  0  0  0  0
    4.8878   -1.9284    0.0000 C   0  0  0  0  0  0  0  0  0  0  0  0
  2  3  1  0  0  0  0
  3  4  1  0  0  0  0
  4  5  4  0  0  0  0
  5  6  4  0  0  0  0
  6  7  4  0  0  0  0
  7  8  1  0  0  0  0
  8  9  4  0  0  0  0
  9 10  1  0  0  0  0
 10 11  4  0  0  0  0
 11 12  4  0  0  0  0
 12 13  4  0  0  0  0
 13 14  4  0  0  0  0
 14 15  4  0  0  0  0
 10 15  4  0  0  0  0
 15 16  1  0  0  0  0
  9 17  4  0  0  0  0
 17 18  4  0  0  0  0
 18 19  4  0  0  0  0
 19 20  4  0  0  0  0
 20 21  4  0  0  0  0
 21 22  1  0  0  0  0
 22 23  4  0  0  0  0
 23 24  4  0  0  0  0
 24 25  4  0  0  0  0
 25 26  4  0  0  0  0
 26 27  4  0  0  0  0
 22 27  4  0  0  0  0
 21 28  4  0  0  0  0
 28 29  4  0  0  0  0
 18 29  4  0  0  0  0
  8 29  4  0  0  0  0
  7 30  4  0  0  0  0
 30 31  4  0  0  0  0
  4 31  4  0  0  0  0
M  END
>  <CdId>
568

>  <Mol Weight>
428.92

>  <Formula>
C24H21ClN6

>  <Molecule ChEMBL ID>
CHEMBL4513257

>  <Molecule Max Phase>
None

>  <Molecular Weight>
428.93

>  <#RO5 Violations>
0

>  <AlogP>
4.19

>  <Compound Key>
9a

>  <Standard Type>
IC50

>  <Standard Relation>
'>'

>  <Standard Value>
10000.0

>  <Standard Units>
nM

$$$$

  Mrv2114 03112311372D          

 29 30  0  0  0  0            999 V2000
   -3.5724   -2.8875    0.0000 C   0  0  0  0  0  0  0  0  0  0  0  0
   -2.8579   -2.4750    0.0000 C   0  0  0  0  0  0  0  0  0  0  0  0
   -2.8579   -1.6500    0.0000 C   0  0  0  0  0  0  0  0  0  0  0  0
   -2.1434   -2.8875    0.0000 O   0  0  0  0  0  0  0  0  0  0  0  0
   -1.4289   -2.4750    0.0000 C   0  0  0  0  0  0  0  0  0  0  0  0
   -1.4289   -1.6500    0.0000 O   0  0  0  0  0  0  0  0  0  0  0  0
   -0.7145   -2.8875    0.0000 N   0  0  0  0  0  0  0  0  0  0  0  0
    0.0000   -2.4750    0.0000 C   0  0  0  0  0  0  0  0  0  0  0  0
    0.7145   -2.8875    0.0000 C   0  0  0  0  0  0  0  0  0  0  0  0
    0.7145   -3.7125    0.0000 C   0  0  0  0  0  0  0  0  0  0  0  0
    1.4289   -4.1250    0.0000 C   0  0  0  0  0  0  0  0  0  0  0  0
    2.1434   -3.7125    0.0000 C   0  0  0  0  0  0  0  0  0  0  0  0
    2.8579   -4.1250    0.0000 C   0  0  0  0  0  0  0  0  0  0  0  0
    3.5724   -3.7125    0.0000 C   0  0  0  0  0  0  0  0  0  0  0  0
    4.2868   -4.1250    0.0000 C   0  0  0  0  0  0  0  0  0  0  0  0
    5.0013   -3.7125    0.0000 O   0  0  0  0  0  0  0  0  0  0  0  0
    5.7158   -4.1250    0.0000 C   0  0  0  0  0  0  0  0  0  0  0  0
    6.4302   -3.7125    0.0000 C   0  0  0  0  0  0  0  0  0  0  0  0
    7.1447   -4.1250    0.0000 C   0  0  0  0  0  0  0  0  0  0  0  0
    7.1447   -4.9500    0.0000 C   0  0  0  0  0  0  0  0  0  0  0  0
    7.8592   -5.3625    0.0000 C   0  0  0  0  0  0  0  0  0  0  0  0
    8.5737   -4.9500    0.0000 O   0  0  0  0  0  0  0  0  0  0  0  0
    7.8592   -6.1875    0.0000 N   0  0  0  0  0  0  0  0  0  0  0  0
    8.5737   -6.6000    0.0000 C   0  0  0  0  0  0  0  0  0  0  0  0
    7.1447   -6.6000    0.0000 C   0  0  0  0  0  0  0  0  0  0  0  0
    6.4302   -5.3625    0.0000 C   0  0  0  0  0  0  0  0  0  0  0  0
    5.7158   -4.9500    0.0000 C   0  0  0  0  0  0  0  0  0  0  0  0
    0.0000   -4.1250    0.0000 C   0  0  0  0  0  0  0  0  0  0  0  0
   -0.7145   -3.7125    0.0000 C   0  0  0  0  0  0  0  0  0  0  0  0
  1  2  1  0  0  0  0
  2  3  1  0  0  0  0
  2  4  1  0  0  0  0
  4  5  1  0  0  0  0
  5  6  2  0  0  0  0
  5  7  1  0  0  0  0
  7  8  1  0  0  0  0
  8  9  1  0  0  0  0
  9 10  1  0  0  0  0
 10 11  1  0  0  0  0
 11 12  1  0  0  0  0
 12 13  1  0  0  0  0
 13 14  1  0  0  0  0
 14 15  1  0  0  0  0
 15 16  1  0  0  0  0
 16 17  1  0  0  0  0
 17 18  4  0  0  0  0
 18 19  4  0  0  0  0
 19 20  4  0  0  0  0
 20 21  1  0  0  0  0
 21 22  2  0  0  0  0
 21 23  1  0  0  0  0
 23 24  1  0  0  0  0
 23 25  1  0  0  0  0
 20 26  4  0  0  0  0
 26 27  4  0  0  0  0
 17 27  4  0  0  0  0
 10 28  1  0  0  0  0
 28 29  1  0  0  0  0
  7 29  1  0  0  0  0
M  END
>  <CdId>
569

>  <Mol Weight>
404.551

>  <Formula>
C23H36N2O4

>  <Molecule ChEMBL ID>
CHEMBL4215560

>  <Molecule Max Phase>
None

>  <Molecular Weight>
404.55

>  <#RO5 Violations>
0

>  <AlogP>
4.58

>  <Compound Key>
6

>  <Standard Type>
IC50

>  <Standard Relation>
'<'

>  <Standard Value>
10000.0

>  <Standard Units>
nM

$$$$

  Mrv2114 03112311372D          

 23 26  0  0  0  0            999 V2000
    3.3523    3.5854    0.0000 F   0  0  0  0  0  0  0  0  0  0  0  0
    4.0668    3.1729    0.0000 C   0  0  0  0  0  0  0  0  0  0  0  0
    4.7812    3.5854    0.0000 C   0  0  0  0  0  0  0  0  0  0  0  0
    5.4957    3.1729    0.0000 C   0  0  0  0  0  0  0  0  0  0  0  0
    5.4957    2.3479    0.0000 C   0  0  0  0  0  0  0  0  0  0  0  0
    4.7812    1.9354    0.0000 C   0  0  0  0  0  0  0  0  0  0  0  0
    4.0668    2.3479    0.0000 C   0  0  0  0  0  0  0  0  0  0  0  0
    3.3523    1.9354    0.0000 C   0  0  0  0  0  0  0  0  0  0  0  0
    3.3523    1.1104    0.0000 C   0  0  0  0  0  0  0  0  0  0  0  0
    2.6378    0.6979    0.0000 C   0  0  0  0  0  0  0  0  0  0  0  0
    2.6378   -0.1271    0.0000 N   0  0  0  0  0  0  0  0  0  0  0  0
    1.9233   -0.5396    0.0000 C   0  0  0  0  0  0  0  0  0  0  0  0
    1.9233   -1.3646    0.0000 C   0  0  0  0  0  0  0  0  0  0  0  0
    1.2089   -1.7771    0.0000 C   0  0  0  0  0  0  0  0  0  0  0  0
    0.4944   -1.3646    0.0000 N   0  0  0  0  0  0  0  0  0  0  0  0
    0.4944   -0.5396    0.0000 C   0  0  0  0  0  0  0  0  0  0  0  0
    1.2089   -0.1271    0.0000 C   0  0  0  0  0  0  0  0  0  0  0  0
    1.9233    1.1104    0.0000 C   0  0  0  0  0  0  0  0  0  0  0  0
    1.1387    0.8555    0.0000 C   0  0  0  0  0  0  0  0  0  0  0  0
    0.6538    1.5229    0.0000 C   0  0  0  0  0  0  0  0  0  0  0  0
    1.1387    2.1904    0.0000 N   0  0  0  0  0  0  0  0  0  0  0  0
    1.9233    1.9354    0.0000 C   0  0  0  0  0  0  0  0  0  0  0  0
    2.6378    2.3479    0.0000 N   0  0  0  0  0  0  0  0  0  0  0  0
  1  2  1  0  0  0  0
  2  3  4  0  0  0  0
  3  4  4  0  0  0  0
  4  5  4  0  0  0  0
  5  6  4  0  0  0  0
  6  7  4  0  0  0  0
  2  7  4  0  0  0  0
  7  8  1  0  0  0  0
  8  9  4  0  0  0  0
  9 10  4  0  0  0  0
 10 11  1  0  0  0  0
 11 12  1  0  0  0  0
 12 13  4  0  0  0  0
 13 14  4  0  0  0  0
 14 15  4  0  0  0  0
 15 16  4  0  0  0  0
 16 17  4  0  0  0  0
 12 17  4  0  0  0  0
 10 18  4  0  0  0  0
 18 19  4  0  0  0  0
 19 20  4  0  0  0  0
 20 21  4  0  0  0  0
 21 22  4  0  0  0  0
 18 22  4  0  0  0  0
 22 23  4  0  0  0  0
  8 23  4  0  0  0  0
M  STY  1   1 DAT
M  SAL   1  1  21
M  SDT   1 MRV_IMPLICIT_H                                        
M  SDD   1     0.0000    0.0000    DR    ALL  0       0  
M  SED   1 IMPL_H1
M  END
>  <CdId>
570

>  <Mol Weight>
304.328

>  <Formula>
C18H13FN4

>  <Molecule ChEMBL ID>
CHEMBL4576833

>  <Molecule Max Phase>
None

>  <Molecular Weight>
304.33

>  <#RO5 Violations>
0

>  <AlogP>
4.51

>  <Compound Key>
1

>  <Standard Type>
IC50

>  <Standard Relation>
'>'

>  <Standard Value>
50118.72

>  <Standard Units>
nM

$$$$

  Mrv2114 03112311372D          

 33 35  0  0  1  0            999 V2000
    5.0013   -0.4125    0.0000 C   0  0  0  0  0  0  0  0  0  0  0  0
    4.2868    0.0000    0.0000 O   0  0  0  0  0  0  0  0  0  0  0  0
    3.5724   -0.4125    0.0000 C   0  0  0  0  0  0  0  0  0  0  0  0
    2.8579    0.0000    0.0000 C   0  0  0  0  0  0  0  0  0  0  0  0
    2.1434   -0.4125    0.0000 C   0  0  0  0  0  0  0  0  0  0  0  0
    2.1434   -1.2375    0.0000 C   0  0  0  0  0  0  0  0  0  0  0  0
    2.8579   -1.6500    0.0000 C   0  0  0  0  0  0  0  0  0  0  0  0
    3.5724   -1.2375    0.0000 C   0  0  0  0  0  0  0  0  0  0  0  0
    4.2868   -1.6500    0.0000 O   0  0  0  0  0  0  0  0  0  0  0  0
    5.0013   -1.2375    0.0000 C   0  0  0  0  0  0  0  0  0  0  0  0
    5.7158   -1.6500    0.0000 C   0  0  0  0  0  0  0  0  0  0  0  0
    6.4302   -1.2375    0.0000 C   0  0  0  0  0  0  0  0  0  0  0  0
    7.1447   -1.6500    0.0000 C   0  0  0  0  0  0  0  0  0  0  0  0
    7.8592   -1.2375    0.0000 C   0  0  0  0  0  0  0  0  0  0  0  0
    8.5737   -1.6500    0.0000 C   0  0  0  0  0  0  0  0  0  0  0  0
    9.2881   -1.2375    0.0000 C   0  0  0  0  0  0  0  0  0  0  0  0
   10.0026   -1.6500    0.0000 O   0  0  0  0  0  0  0  0  0  0  0  0
    9.2881   -0.4125    0.0000 O   0  0  0  0  0  0  0  0  0  0  0  0
    1.4289   -1.6500    0.0000 C   0  0  0  0  0  0  0  0  0  0  0  0
    0.7145   -1.2375    0.0000 C   0  0  1  0  0  0  0  0  0  0  0  0
    0.0000   -1.6500    0.0000 C   0  0  0  0  0  0  0  0  0  0  0  0
   -0.7145   -1.2375    0.0000 C   0  0  0  0  0  0  0  0  0  0  0  0
    0.0000   -2.4750    0.0000 C   0  0  0  0  0  0  0  0  0  0  0  0
    0.7145   -0.4125    0.0000 N   0  0  0  0  0  0  0  0  0  0  0  0
    0.0000    0.0000    0.0000 C   0  0  0  0  0  0  0  0  0  0  0  0
    0.0000    0.8250    0.0000 C   0  0  0  0  0  0  0  0  0  0  0  0
   -0.7145    1.2375    0.0000 C   0  0  0  0  0  0  0  0  0  0  0  0
   -1.4289    0.8250    0.0000 O   0  0  0  0  0  0  0  0  0  0  0  0
   -0.7145    2.0625    0.0000 O   0  0  0  0  0  0  0  0  0  0  0  0
    0.7145    1.2375    0.0000 C   0  0  0  0  0  0  0  0  0  0  0  0
    0.7145    2.0625    0.0000 O   0  0  0  0  0  0  0  0  0  0  0  0
    1.4289    0.8250    0.0000 C   0  0  0  0  0  0  0  0  0  0  0  0
    1.4289    0.0000    0.0000 C   0  0  0  0  0  0  0  0  0  0  0  0
  1  2  1  0  0  0  0
  2  3  1  0  0  0  0
  3  4  4  0  0  0  0
  4  5  4  0  0  0  0
  5  6  4  0  0  0  0
  6  7  4  0  0  0  0
  7  8  4  0  0  0  0
  3  8  4  0  0  0  0
  8  9  1  0  0  0  0
  9 10  1  0  0  0  0
 10 11  1  0  0  0  0
 11 12  1  0  0  0  0
 12 13  1  0  0  0  0
 13 14  1  0  0  0  0
 14 15  1  0  0  0  0
 15 16  1  0  0  0  0
 16 17  2  0  0  0  0
 16 18  1  0  0  0  0
  6 19  1  0  0  0  0
 20 19  1  0  0  0  0
 20 21  1  1  0  0  0
 21 22  1  0  0  0  0
 21 23  1  0  0  0  0
 20 24  1  0  0  0  0
 24 25  4  0  0  0  0
 25 26  4  0  0  0  0
 26 27  1  0  0  0  0
 27 28  2  0  0  0  0
 27 29  1  0  0  0  0
 26 30  4  0  0  0  0
 30 31  2  0  0  0  0
 30 32  4  0  0  0  0
 32 33  4  0  0  0  0
 24 33  4  0  0  0  0
  5 33  1  0  0  0  0
M  END
>  <CdId>
571

>  <Mol Weight>
457.523

>  <Formula>
C25H31NO7

>  <Molecule ChEMBL ID>
CHEMBL4850531

>  <Molecule Max Phase>
None

>  <Molecular Weight>
457.52

>  <#RO5 Violations>
0

>  <AlogP>
4.39

>  <Compound Key>
19

>  <Standard Type>
IC50

>  <Standard Relation>
'>'

>  <Standard Value>
10000.0

>  <Standard Units>
nM

$$$$

  Mrv2114 03112311372D          

 25 28  0  0  1  0            999 V2000
   -1.2288    1.7457    0.0000 C   0  0  0  0  0  0  0  0  0  0  0  0
   -0.8932    0.9920    0.0000 N   0  0  0  0  0  0  0  0  0  0  0  0
   -0.0862    0.8205    0.0000 C   0  0  0  0  0  0  0  0  0  0  0  0
    0.0000    0.0000    0.0000 C   0  0  0  0  0  0  0  0  0  0  0  0
    0.7145   -0.4125    0.0000 C   0  0  1  0  0  0  0  0  0  0  0  0
    1.4289    0.0000    0.0000 C   0  0  0  0  0  0  0  0  0  0  0  0
    2.1434   -0.4125    0.0000 C   0  0  1  0  0  0  0  0  0  0  0  0
    2.8579    0.0000    0.0000 C   0  0  0  0  0  0  0  0  0  0  0  0
    3.5724   -0.4125    0.0000 S   0  0  0  0  0  0  0  0  0  0  0  0
    3.5724   -1.2375    0.0000 C   0  0  0  0  0  0  0  0  0  0  0  0
    4.2868   -1.6500    0.0000 N   0  0  0  0  0  0  0  0  0  0  0  0
    2.8579   -1.6500    0.0000 N   0  0  0  0  0  0  0  0  0  0  0  0
    2.1434   -1.2375    0.0000 C   0  0  2  0  0  0  0  0  0  0  0  0
    2.1434   -2.0625    0.0000 C   0  0  0  0  0  0  0  0  0  0  0  0
    2.8579   -2.4750    0.0000 C   0  0  0  0  0  0  0  0  0  0  0  0
    2.8579   -3.3000    0.0000 C   0  0  0  0  0  0  0  0  0  0  0  0
    2.1434   -3.7125    0.0000 C   0  0  0  0  0  0  0  0  0  0  0  0
    2.1434   -4.5375    0.0000 F   0  0  0  0  0  0  0  0  0  0  0  0
    1.4289   -3.3000    0.0000 C   0  0  0  0  0  0  0  0  0  0  0  0
    1.4289   -2.4750    0.0000 C   0  0  0  0  0  0  0  0  0  0  0  0
    0.7145   -2.0625    0.0000 F   0  0  0  0  0  0  0  0  0  0  0  0
    1.4289   -1.6500    0.0000 C   0  0  0  0  0  0  0  0  0  0  0  0
    0.7145   -1.2375    0.0000 O   0  0  0  0  0  0  0  0  0  0  0  0
   -0.7537   -0.3356    0.0000 C   0  0  0  0  0  0  0  0  0  0  0  0
   -1.3057    0.2775    0.0000 N   0  0  0  0  0  0  0  0  0  0  0  0
  1  2  1  0  0  0  0
  2  3  4  0  0  0  0
  3  4  4  0  0  0  0
  5  4  1  1  0  0  0
  5  6  1  0  0  0  0
  7  6  1  1  0  0  0
  7  8  1  0  0  0  0
  8  9  1  0  0  0  0
  9 10  1  0  0  0  0
 10 11  1  0  0  0  0
 10 12  2  0  0  0  0
 13 12  1  0  0  0  0
  7 13  1  0  0  0  0
 13 14  1  6  0  0  0
 14 15  4  0  0  0  0
 15 16  4  0  0  0  0
 16 17  4  0  0  0  0
 17 18  1  0  0  0  0
 17 19  4  0  0  0  0
 19 20  4  0  0  0  0
 14 20  4  0  0  0  0
 20 21  1  0  0  0  0
 13 22  1  0  0  0  0
 22 23  1  0  0  0  0
  5 23  1  0  0  0  0
  4 24  4  0  0  0  0
 24 25  4  0  0  0  0
  2 25  4  0  0  0  0
M  END
>  <CdId>
572

>  <Mol Weight>
364.41

>  <Formula>
C17H18F2N4OS

>  <Molecule ChEMBL ID>
CHEMBL3422238

>  <Molecule Max Phase>
None

>  <Molecular Weight>
364.42

>  <#RO5 Violations>
0

>  <AlogP>
2.73

>  <Compound Key>
5

>  <Standard Type>
IC50

>  <Standard Relation>
'>'

>  <Standard Value>
30000.0

>  <Standard Units>
nM

$$$$

  Mrv2114 03112311372D          

 38 42  0  0  0  0            999 V2000
    5.0541   -1.8550    0.0000 C   0  0  0  0  0  0  0  0  0  0  0  0
    4.3396   -1.4425    0.0000 C   0  0  0  0  0  0  0  0  0  0  0  0
    3.6251   -1.8550    0.0000 O   0  0  0  0  0  0  0  0  0  0  0  0
    4.3396   -0.6175    0.0000 N   0  0  0  0  0  0  0  0  0  0  0  0
    3.6251   -0.2050    0.0000 C   0  0  0  0  0  0  0  0  0  0  0  0
    3.6251    0.6200    0.0000 C   0  0  0  0  0  0  0  0  0  0  0  0
    2.9107    1.0325    0.0000 C   0  0  0  0  0  0  0  0  0  0  0  0
    2.1962    0.6200    0.0000 C   0  0  0  0  0  0  0  0  0  0  0  0
    2.1962   -0.2050    0.0000 C   0  0  0  0  0  0  0  0  0  0  0  0
    1.4817   -0.6175    0.0000 C   0  0  0  0  0  0  0  0  0  0  0  0
    1.4817   -1.4425    0.0000 C   0  0  0  0  0  0  0  0  0  0  0  0
    0.7672   -1.8550    0.0000 C   0  0  0  0  0  0  0  0  0  0  0  0
    0.0528   -1.4425    0.0000 C   0  0  0  0  0  0  0  0  0  0  0  0
   -0.7318   -1.6974    0.0000 N   0  0  0  0  0  0  0  0  0  0  0  0
   -1.2168   -1.0300    0.0000 C   0  0  0  0  0  0  0  0  0  0  0  0
   -2.0418   -1.0300    0.0000 C   0  0  0  0  0  0  0  0  0  0  0  0
   -2.4543   -0.3155    0.0000 C   0  0  0  0  0  0  0  0  0  0  0  0
   -3.2793   -0.3155    0.0000 C   0  0  0  0  0  0  0  0  0  0  0  0
   -3.6918   -1.0300    0.0000 C   0  0  0  0  0  0  0  0  0  0  0  0
   -3.2793   -1.7445    0.0000 N   0  0  0  0  0  0  0  0  0  0  0  0
   -2.4543   -1.7445    0.0000 C   0  0  0  0  0  0  0  0  0  0  0  0
   -2.0418   -2.4589    0.0000 N   0  0  0  0  0  0  0  0  0  0  0  0
   -0.7318   -0.3626    0.0000 N   0  0  0  0  0  0  0  0  0  0  0  0
   -0.9868    0.4221    0.0000 C   0  0  0  0  0  0  0  0  0  0  0  0
   -1.7938    0.5936    0.0000 C   0  0  0  0  0  0  0  0  0  0  0  0
   -2.0487    1.3782    0.0000 C   0  0  0  0  0  0  0  0  0  0  0  0
   -1.4967    1.9913    0.0000 C   0  0  0  0  0  0  0  0  0  0  0  0
   -1.7516    2.7759    0.0000 C   0  0  0  0  0  0  0  0  0  0  0  0
   -0.9670    3.0309    0.0000 N   0  0  0  0  0  0  0  0  0  0  0  0
   -2.5362    2.5210    0.0000 C   0  0  0  0  0  0  0  0  0  0  0  0
   -2.7912    3.3056    0.0000 C   0  0  0  0  0  0  0  0  0  0  0  0
   -2.0065    3.5605    0.0000 C   0  0  0  0  0  0  0  0  0  0  0  0
   -0.6897    1.8198    0.0000 C   0  0  0  0  0  0  0  0  0  0  0  0
   -0.4348    1.0352    0.0000 C   0  0  0  0  0  0  0  0  0  0  0  0
    0.0528   -0.6175    0.0000 C   0  0  0  0  0  0  0  0  0  0  0  0
    0.7672   -0.2050    0.0000 N   0  0  0  0  0  0  0  0  0  0  0  0
    2.9107   -0.6175    0.0000 C   0  0  0  0  0  0  0  0  0  0  0  0
    7.0576    0.0000    0.0000 Cl  0  0  0  0  0  0  0  0  0  0  0  0
  1  2  1  0  0  0  0
  2  3  2  0  0  0  0
  2  4  1  0  0  0  0
  4  5  1  0  0  0  0
  5  6  4  0  0  0  0
  6  7  4  0  0  0  0
  7  8  4  0  0  0  0
  8  9  4  0  0  0  0
  9 10  1  0  0  0  0
 10 11  4  0  0  0  0
 11 12  4  0  0  0  0
 12 13  4  0  0  0  0
 13 14  4  0  0  0  0
 14 15  4  0  0  0  0
 15 16  1  0  0  0  0
 16 17  4  0  0  0  0
 17 18  4  0  0  0  0
 18 19  4  0  0  0  0
 19 20  4  0  0  0  0
 20 21  4  0  0  0  0
 16 21  4  0  0  0  0
 21 22  1  0  0  0  0
 15 23  4  0  0  0  0
 23 24  1  0  0  0  0
 24 25  4  0  0  0  0
 25 26  4  0  0  0  0
 26 27  4  0  0  0  0
 27 28  1  0  0  0  0
 28 29  1  0  0  0  0
 28 30  1  0  0  0  0
 30 31  1  0  0  0  0
 31 32  1  0  0  0  0
 28 32  1  0  0  0  0
 27 33  4  0  0  0  0
 33 34  4  0  0  0  0
 24 34  4  0  0  0  0
 23 35  4  0  0  0  0
 13 35  4  0  0  0  0
 35 36  4  0  0  0  0
 10 36  4  0  0  0  0
  9 37  4  0  0  0  0
  5 37  4  0  0  0  0
M  END
>  <CdId>
573

>  <Mol Weight>
526.04

>  <Formula>
C29H28ClN7O

>  <Molecule ChEMBL ID>
CHEMBL4519558

>  <Molecule Max Phase>
None

>  <Molecular Weight>
526.04

>  <#RO5 Violations>
1

>  <AlogP>
5.03

>  <Compound Key>
21b

>  <Standard Type>
IC50

>  <Standard Relation>
'='

>  <Standard Value>
1000.0

>  <Standard Units>
nM

$$$$

  Mrv2114 03112311372D          

 30 33  0  0  1  0            999 V2000
    2.1434   -3.7125    0.0000 C   0  0  0  0  0  0  0  0  0  0  0  0
    2.1434   -2.8875    0.0000 C   0  0  2  0  0  0  0  0  0  0  0  0
    1.4289   -2.4750    0.0000 C   0  0  0  0  0  0  0  0  0  0  0  0
    1.4289   -1.6500    0.0000 C   0  0  0  0  0  0  0  0  0  0  0  0
    2.1434   -1.2375    0.0000 O   0  0  0  0  0  0  0  0  0  0  0  0
    2.8579   -1.6500    0.0000 C   0  0  1  0  0  0  0  0  0  0  0  0
    3.5724   -1.2375    0.0000 C   0  0  0  0  0  0  0  0  0  0  0  0
    4.2868   -1.6500    0.0000 N   0  0  0  0  0  0  0  0  0  0  0  0
    5.0013   -1.2375    0.0000 C   0  0  0  0  0  0  0  0  0  0  0  0
    5.7158   -1.6500    0.0000 C   0  0  0  0  0  0  0  0  0  0  0  0
    6.4302   -1.2375    0.0000 C   0  0  0  0  0  0  0  0  0  0  0  0
    6.4302   -0.4125    0.0000 O   0  0  0  0  0  0  0  0  0  0  0  0
    7.1447   -1.6500    0.0000 N   0  0  0  0  0  0  0  0  0  0  0  0
    7.8592   -1.2375    0.0000 C   0  0  0  0  0  0  0  0  0  0  0  0
    8.5737   -1.6500    0.0000 C   0  0  0  0  0  0  0  0  0  0  0  0
    9.2881   -1.2375    0.0000 C   0  0  0  0  0  0  0  0  0  0  0  0
   10.0026   -1.6500    0.0000 C   0  0  0  0  0  0  0  0  0  0  0  0
   10.0026   -2.4750    0.0000 C   0  0  0  0  0  0  0  0  0  0  0  0
   10.7171   -2.8875    0.0000 F   0  0  0  0  0  0  0  0  0  0  0  0
    9.2881   -2.8875    0.0000 C   0  0  0  0  0  0  0  0  0  0  0  0
    8.5737   -2.4750    0.0000 C   0  0  0  0  0  0  0  0  0  0  0  0
    7.8592   -2.8875    0.0000 F   0  0  0  0  0  0  0  0  0  0  0  0
    5.7158   -2.4750    0.0000 C   0  0  0  0  0  0  0  0  0  0  0  0
    6.4302   -2.8875    0.0000 O   0  0  0  0  0  0  0  0  0  0  0  0
    5.0013   -2.8875    0.0000 C   0  0  0  0  0  0  0  0  0  0  0  0
    5.0013   -3.7125    0.0000 O   0  0  0  0  0  0  0  0  0  0  0  0
    4.2868   -2.4750    0.0000 C   0  0  0  0  0  0  0  0  0  0  0  0
    3.5724   -2.8875    0.0000 C   0  0  0  0  0  0  0  0  0  0  0  0
    3.5724   -3.7125    0.0000 O   0  0  0  0  0  0  0  0  0  0  0  0
    2.8579   -2.4750    0.0000 N   0  0  0  0  0  0  0  0  0  0  0  0
  2  1  1  6  0  0  0
  2  3  1  0  0  0  0
  3  4  1  0  0  0  0
  4  5  1  0  0  0  0
  6  5  1  0  0  0  0
  6  7  1  0  0  0  0
  7  8  1  0  0  0  0
  8  9  4  0  0  0  0
  9 10  4  0  0  0  0
 10 11  1  0  0  0  0
 11 12  2  0  0  0  0
 11 13  1  0  0  0  0
 13 14  1  0  0  0  0
 14 15  1  0  0  0  0
 15 16  4  0  0  0  0
 16 17  4  0  0  0  0
 17 18  4  0  0  0  0
 18 19  1  0  0  0  0
 18 20  4  0  0  0  0
 20 21  4  0  0  0  0
 15 21  4  0  0  0  0
 21 22  1  0  0  0  0
 10 23  4  0  0  0  0
 23 24  2  0  0  0  0
 23 25  4  0  0  0  0
 25 26  1  0  0  0  0
 25 27  4  0  0  0  0
  8 27  4  0  0  0  0
 27 28  1  0  0  0  0
 28 29  2  0  0  0  0
 28 30  1  0  0  0  0
  2 30  1  0  0  0  0
  6 30  1  1  0  0  0
M  END
>  <CdId>
574

>  <Mol Weight>
419.385

>  <Formula>
C20H19F2N3O5

>  <Molecule ChEMBL ID>
CHEMBL1229211

>  <Molecule Name>
DOLUTEGRAVIR

>  <Molecule Max Phase>
4

>  <Molecular Weight>
419.38

>  <#RO5 Violations>
0

>  <AlogP>
1.35

>  <Compound Key>
DTG, S/GSK1349572, Dolutegravir

>  <Standard Type>
IC50

>  <Standard Relation>
'>'

>  <Standard Value>
100000.0

>  <Standard Units>
nM

$$$$

  Mrv2114 03112311372D          

 26 27  0  0  0  0            999 V2000
    6.4302   -2.0625    0.0000 C   0  0  0  0  0  0  0  0  0  0  0  0
    7.1447   -1.6500    0.0000 C   0  0  0  0  0  0  0  0  0  0  0  0
    7.8592   -2.0625    0.0000 C   0  0  0  0  0  0  0  0  0  0  0  0
    8.5737   -1.6500    0.0000 C   0  0  0  0  0  0  0  0  0  0  0  0
    9.2881   -2.0625    0.0000 C   0  0  0  0  0  0  0  0  0  0  0  0
   10.0026   -1.6500    0.0000 C   0  0  0  0  0  0  0  0  0  0  0  0
   10.7171   -2.0625    0.0000 C   0  0  0  0  0  0  0  0  0  0  0  0
   11.4315   -1.6500    0.0000 C   0  0  0  0  0  0  0  0  0  0  0  0
   12.1460   -2.0625    0.0000 C   0  0  0  0  0  0  0  0  0  0  0  0
   12.8605   -1.6500    0.0000 C   0  0  0  0  0  0  0  0  0  0  0  0
   13.5749   -2.0625    0.0000 C   0  0  0  0  0  0  0  0  0  0  0  0
   13.5749   -2.8875    0.0000 C   0  0  0  0  0  0  0  0  0  0  0  0
   14.2894   -3.3000    0.0000 C   0  0  0  0  0  0  0  0  0  0  0  0
   14.2894   -4.1250    0.0000 C   0  0  0  0  0  0  0  0  0  0  0  0
   15.0039   -4.5375    0.0000 C   0  0  0  0  0  0  0  0  0  0  0  0
   15.7184   -4.1250    0.0000 C   0  0  0  0  0  0  0  0  0  0  0  0
   16.4328   -4.5375    0.0000 C   0  0  0  0  0  0  0  0  0  0  0  0
   16.0203   -5.2520    0.0000 N   0  0  0  0  0  0  0  0  0  0  0  0
   17.1473   -4.9500    0.0000 C   0  0  0  0  0  0  0  0  0  0  0  0
   17.8618   -4.5375    0.0000 O   0  0  0  0  0  0  0  0  0  0  0  0
   16.8453   -3.8230    0.0000 C   0  0  0  0  0  0  0  0  0  0  0  0
   17.6703   -3.8230    0.0000 O   0  0  0  0  0  0  0  0  0  0  0  0
   13.5749   -4.5375    0.0000 C   0  0  0  0  0  0  0  0  0  0  0  0
   12.8605   -4.1250    0.0000 C   0  0  0  0  0  0  0  0  0  0  0  0
   12.8605   -3.3000    0.0000 C   0  0  0  0  0  0  0  0  0  0  0  0
   12.1460   -2.8875    0.0000 C   0  0  0  0  0  0  0  0  0  0  0  0
  1  2  1  0  0  0  0
  2  3  1  0  0  0  0
  3  4  1  0  0  0  0
  4  5  1  0  0  0  0
  5  6  1  0  0  0  0
  6  7  1  0  0  0  0
  7  8  1  0  0  0  0
  8  9  1  0  0  0  0
  9 10  1  0  0  0  0
 10 11  1  0  0  0  0
 11 12  1  0  0  0  0
 12 13  4  0  0  0  0
 13 14  4  0  0  0  0
 14 15  1  0  0  0  0
 15 16  1  0  0  0  0
 16 17  1  0  0  0  0
 17 18  1  0  0  0  0
 17 19  1  0  0  0  0
 19 20  1  0  0  0  0
 17 21  1  0  0  0  0
 21 22  1  0  0  0  0
 14 23  4  0  0  0  0
 23 24  4  0  0  0  0
 24 25  4  0  0  0  0
 12 25  4  0  0  0  0
 25 26  1  0  0  0  0
  9 26  1  0  0  0  0
M  END
>  <CdId>
575

>  <Mol Weight>
361.57

>  <Formula>
C23H39NO2

>  <Molecule ChEMBL ID>
CHEMBL4750944

>  <Molecule Max Phase>
None

>  <Molecular Weight>
361.57

>  <#RO5 Violations>
0

>  <AlogP>
4.16

>  <Compound Key>
4c; FTY720

>  <Standard Type>
IC50

>  <Standard Relation>
'='

>  <Standard Value>
3200.0

>  <Standard Units>
nM

$$$$

  Mrv2114 03112311372D          

 41 44  0  0  1  0            999 V2000
   -3.3370   -2.6158    0.0000 C   0  0  0  0  0  0  0  0  0  0  0  0
   -2.5607   -2.8951    0.0000 C   0  0  0  0  0  0  0  0  0  0  0  0
   -2.8401   -3.6714    0.0000 C   0  0  0  0  0  0  0  0  0  0  0  0
   -2.2814   -2.1188    0.0000 O   0  0  0  0  0  0  0  0  0  0  0  0
   -1.7845   -3.1744    0.0000 C   0  0  0  0  0  0  0  0  0  0  0  0
   -1.1544   -2.6418    0.0000 C   0  0  0  0  0  0  0  0  0  0  0  0
   -1.3007   -1.8299    0.0000 O   0  0  0  0  0  0  0  0  0  0  0  0
   -0.3781   -2.9211    0.0000 N   0  0  0  0  0  0  0  0  0  0  0  0
    0.2519   -2.3885    0.0000 C   0  0  2  0  0  0  0  0  0  0  0  0
    0.1913   -1.5657    0.0000 C   0  0  0  0  0  0  0  0  0  0  0  0
    0.9551   -1.2539    0.0000 C   0  0  0  0  0  0  0  0  0  0  0  0
    1.4877   -1.8839    0.0000 C   0  0  1  0  0  0  0  0  0  0  0  0
    1.8467   -1.1411    0.0000 S   0  0  0  0  0  0  0  0  0  0  0  0
    2.5737   -0.7511    0.0000 O   0  0  0  0  0  0  0  0  0  0  0  0
    1.1038   -0.7822    0.0000 O   0  0  0  0  0  0  0  0  0  0  0  0
    2.2056   -0.3983    0.0000 C   0  0  0  0  0  0  0  0  0  0  0  0
    1.7417    0.2840    0.0000 C   0  0  0  0  0  0  0  0  0  0  0  0
    2.1007    1.0268    0.0000 C   0  0  0  0  0  0  0  0  0  0  0  0
    2.9234    1.0874    0.0000 C   0  0  0  0  0  0  0  0  0  0  0  0
    3.2824    1.8302    0.0000 F   0  0  0  0  0  0  0  0  0  0  0  0
    3.3873    0.4051    0.0000 C   0  0  0  0  0  0  0  0  0  0  0  0
    3.0284   -0.3377    0.0000 C   0  0  0  0  0  0  0  0  0  0  0  0
    2.3123   -1.9097    0.0000 C   0  0  0  0  0  0  0  0  0  0  0  0
    2.7469   -1.2084    0.0000 C   0  0  0  0  0  0  0  0  0  0  0  0
    3.5715   -1.2342    0.0000 C   0  0  0  0  0  0  0  0  0  0  0  0
    3.9615   -1.9612    0.0000 C   0  0  0  0  0  0  0  0  0  0  0  0
    4.7861   -1.9870    0.0000 C   0  0  0  0  0  0  0  0  0  0  0  0
    4.8119   -1.1624    0.0000 F   0  0  0  0  0  0  0  0  0  0  0  0
    4.7603   -2.8116    0.0000 C   0  0  0  0  0  0  0  0  0  0  0  0
    4.7346   -3.6362    0.0000 F   0  0  0  0  0  0  0  0  0  0  0  0
    3.9358   -2.7858    0.0000 F   0  0  0  0  0  0  0  0  0  0  0  0
    5.5849   -2.8373    0.0000 F   0  0  0  0  0  0  0  0  0  0  0  0
    5.6107   -2.0127    0.0000 C   0  0  0  0  0  0  0  0  0  0  0  0
    6.4353   -2.0385    0.0000 F   0  0  0  0  0  0  0  0  0  0  0  0
    6.0746   -2.6950    0.0000 F   0  0  0  0  0  0  0  0  0  0  0  0
    5.6365   -1.1881    0.0000 F   0  0  0  0  0  0  0  0  0  0  0  0
    3.5269   -2.6624    0.0000 N   0  0  0  0  0  0  0  0  0  0  0  0
    2.7023   -2.6367    0.0000 C   0  0  0  0  0  0  0  0  0  0  0  0
    2.2677   -3.3379    0.0000 C   0  0  0  0  0  0  0  0  0  0  0  0
    1.4431   -3.3122    0.0000 C   0  0  0  0  0  0  0  0  0  0  0  0
    1.0531   -2.5852    0.0000 C   0  0  1  0  0  0  0  0  0  0  0  0
  1  2  1  0  0  0  0
  2  3  1  0  0  0  0
  2  4  1  0  0  0  0
  2  5  1  0  0  0  0
  5  6  1  0  0  0  0
  6  7  2  0  0  0  0
  6  8  1  0  0  0  0
  9  8  1  6  0  0  0
  9 10  1  0  0  0  0
 10 11  1  0  0  0  0
 12 11  1  0  0  0  0
 12 13  1  6  0  0  0
 13 14  2  0  0  0  0
 13 15  2  0  0  0  0
 13 16  1  0  0  0  0
 16 17  4  0  0  0  0
 17 18  4  0  0  0  0
 18 19  4  0  0  0  0
 19 20  1  0  0  0  0
 19 21  4  0  0  0  0
 21 22  4  0  0  0  0
 16 22  4  0  0  0  0
 12 23  1  0  0  0  0
 23 24  4  0  0  0  0
 24 25  4  0  0  0  0
 25 26  4  0  0  0  0
 26 27  1  0  0  0  0
 27 28  1  0  0  0  0
 27 29  1  0  0  0  0
 29 30  1  0  0  0  0
 29 31  1  0  0  0  0
 29 32  1  0  0  0  0
 27 33  1  0  0  0  0
 33 34  1  0  0  0  0
 33 35  1  0  0  0  0
 33 36  1  0  0  0  0
 26 37  4  0  0  0  0
 37 38  4  0  0  0  0
 23 38  4  0  0  0  0
 38 39  1  0  0  0  0
 39 40  1  0  0  0  0
 41 40  1  1  0  0  0
 41  9  1  0  0  0  0
 41 12  1  0  0  0  0
M  END
>  <CdId>
576

>  <Mol Weight>
614.55

>  <Formula>
C26H26F8N2O4S

>  <Molecule ChEMBL ID>
CHEMBL4800380

>  <Molecule Max Phase>
None

>  <Molecular Weight>
614.56

>  <#RO5 Violations>
2

>  <AlogP>
5.18

>  <Compound Key>
8b

>  <Standard Type>
IC50

>  <Standard Relation>
'='

>  <Standard Value>
6300.0

>  <Standard Units>
nM

$$$$

  Mrv2114 03112311372D          

 22 24  0  0  0  0            999 V2000
    1.4289   -2.4750    0.0000 O   0  0  0  0  0  0  0  0  0  0  0  0
    1.4289   -1.6500    0.0000 C   0  0  0  0  0  0  0  0  0  0  0  0
    0.7145   -1.2375    0.0000 C   0  0  0  0  0  0  0  0  0  0  0  0
    0.0000   -1.6500    0.0000 O   0  0  0  0  0  0  0  0  0  0  0  0
    0.7145   -0.4125    0.0000 C   0  0  0  0  0  0  0  0  0  0  0  0
    0.0000    0.0000    0.0000 C   0  0  0  0  0  0  0  0  0  0  0  0
   -0.7145   -0.4125    0.0000 C   0  0  0  0  0  0  0  0  0  0  0  0
   -1.4289    0.0000    0.0000 C   0  0  0  0  0  0  0  0  0  0  0  0
   -1.4289    0.8250    0.0000 C   0  0  0  0  0  0  0  0  0  0  0  0
   -2.1434    1.2375    0.0000 O   0  0  0  0  0  0  0  0  0  0  0  0
   -0.7145    1.2375    0.0000 C   0  0  0  0  0  0  0  0  0  0  0  0
   -0.7145    2.0625    0.0000 O   0  0  0  0  0  0  0  0  0  0  0  0
    0.0000    0.8250    0.0000 C   0  0  0  0  0  0  0  0  0  0  0  0
    1.4289    0.0000    0.0000 O   0  0  0  0  0  0  0  0  0  0  0  0
    2.1434   -0.4125    0.0000 C   0  0  0  0  0  0  0  0  0  0  0  0
    2.8579    0.0000    0.0000 C   0  0  0  0  0  0  0  0  0  0  0  0
    3.5724   -0.4125    0.0000 C   0  0  0  0  0  0  0  0  0  0  0  0
    4.2868   -0.0000    0.0000 O   0  0  0  0  0  0  0  0  0  0  0  0
    3.5724   -1.2375    0.0000 C   0  0  0  0  0  0  0  0  0  0  0  0
    2.8579   -1.6500    0.0000 C   0  0  0  0  0  0  0  0  0  0  0  0
    2.8579   -2.4750    0.0000 O   0  0  0  0  0  0  0  0  0  0  0  0
    2.1434   -1.2375    0.0000 C   0  0  0  0  0  0  0  0  0  0  0  0
  1  2  2  0  0  0  0
  2  3  4  0  0  0  0
  3  4  1  0  0  0  0
  3  5  4  0  0  0  0
  5  6  1  0  0  0  0
  6  7  4  0  0  0  0
  7  8  4  0  0  0  0
  8  9  4  0  0  0  0
  9 10  1  0  0  0  0
  9 11  4  0  0  0  0
 11 12  1  0  0  0  0
 11 13  4  0  0  0  0
  6 13  4  0  0  0  0
  5 14  4  0  0  0  0
 14 15  4  0  0  0  0
 15 16  4  0  0  0  0
 16 17  4  0  0  0  0
 17 18  1  0  0  0  0
 17 19  4  0  0  0  0
 19 20  4  0  0  0  0
 20 21  1  0  0  0  0
 20 22  4  0  0  0  0
  2 22  4  0  0  0  0
 15 22  4  0  0  0  0
M  END
>  <CdId>
577

>  <Mol Weight>
302.238

>  <Formula>
C15H10O7

>  <Molecule ChEMBL ID>
CHEMBL50

>  <Molecule Name>
QUERCETIN

>  <Molecule Max Phase>
3

>  <Molecular Weight>
302.24

>  <#RO5 Violations>
0

>  <AlogP>
1.99

>  <Compound Key>
BDBM7460

>  <Standard Type>
IC50

>  <Standard Relation>
'='

>  <Standard Value>
3500.0

>  <Standard Units>
nM

$$$$

  Mrv2114 03112311372D          

 20 21  0  0  0  0            999 V2000
    7.5706   -1.7343    0.0000 O   0  0  0  0  0  0  0  0  0  0  0  0
    8.2850   -2.1468    0.0000 C   0  0  0  0  0  0  0  0  0  0  0  0
    8.2850   -2.9718    0.0000 O   0  0  0  0  0  0  0  0  0  0  0  0
    8.9995   -1.7343    0.0000 C   0  0  0  0  0  0  0  0  0  0  0  0
    9.7140   -2.1468    0.0000 C   0  0  0  0  0  0  0  0  0  0  0  0
   10.4284   -1.7343    0.0000 C   0  0  0  0  0  0  0  0  0  0  0  0
   11.1429   -2.1468    0.0000 C   0  0  0  0  0  0  0  0  0  0  0  0
   11.8574   -1.7343    0.0000 C   0  0  0  0  0  0  0  0  0  0  0  0
   12.5719   -2.1468    0.0000 C   0  0  0  0  0  0  0  0  0  0  0  0
   13.2863   -1.7343    0.0000 C   0  0  0  0  0  0  0  0  0  0  0  0
   14.0008   -2.1468    0.0000 N   0  0  0  0  0  0  0  0  0  0  0  0
   14.7153   -1.7343    0.0000 N   0  0  0  0  0  0  0  0  0  0  0  0
   14.8015   -0.9138    0.0000 N   0  0  0  0  0  0  0  0  0  0  0  0
   15.6085   -0.7423    0.0000 N   0  0  0  0  0  0  0  0  0  0  0  0
   16.0210   -1.4567    0.0000 C   0  0  0  0  0  0  0  0  0  0  0  0
   16.8279   -1.6283    0.0000 C   0  0  0  0  0  0  0  0  0  0  0  0
   17.0829   -2.4129    0.0000 C   0  0  0  0  0  0  0  0  0  0  0  0
   16.5309   -3.0260    0.0000 C   0  0  0  0  0  0  0  0  0  0  0  0
   15.7239   -2.8545    0.0000 C   0  0  0  0  0  0  0  0  0  0  0  0
   15.4689   -2.0698    0.0000 C   0  0  0  0  0  0  0  0  0  0  0  0
  1  2  2  0  0  0  0
  2  3  1  0  0  0  0
  2  4  1  0  0  0  0
  4  5  1  0  0  0  0
  5  6  1  0  0  0  0
  6  7  1  0  0  0  0
  7  8  1  0  0  0  0
  8  9  1  0  0  0  0
  9 10  1  0  0  0  0
 10 11  1  0  0  0  0
 11 12  1  0  0  0  0
 12 13  4  0  0  0  0
 13 14  4  0  0  0  0
 14 15  4  0  0  0  0
 15 16  4  0  0  0  0
 16 17  4  0  0  0  0
 17 18  4  0  0  0  0
 18 19  4  0  0  0  0
 19 20  4  0  0  0  0
 15 20  4  0  0  0  0
 12 20  4  0  0  0  0
M  END
>  <CdId>
578

>  <Mol Weight>
276.34

>  <Formula>
C14H20N4O2

>  <Molecule ChEMBL ID>
CHEMBL4557940

>  <Molecule Max Phase>
None

>  <Molecular Weight>
276.34

>  <#RO5 Violations>
0

>  <AlogP>
2.4

>  <Compound Key>
7

>  <Standard Type>
IC50

>  <Standard Relation>
'='

>  <Standard Value>
84000.0

>  <Standard Units>
nM

$$$$

  Mrv2114 03112311372D          

 18 19  0  0  0  0            999 V2000
    6.2116   -1.2927    0.0000 O   0  0  0  0  0  0  0  0  0  0  0  0
    6.9260   -1.7052    0.0000 C   0  0  0  0  0  0  0  0  0  0  0  0
    6.9260   -2.5302    0.0000 O   0  0  0  0  0  0  0  0  0  0  0  0
    7.6405   -1.2927    0.0000 C   0  0  0  0  0  0  0  0  0  0  0  0
    8.3550   -1.7052    0.0000 C   0  0  0  0  0  0  0  0  0  0  0  0
    9.0694   -1.2927    0.0000 C   0  0  0  0  0  0  0  0  0  0  0  0
    9.7839   -1.7052    0.0000 C   0  0  0  0  0  0  0  0  0  0  0  0
   10.4984   -1.2927    0.0000 C   0  0  0  0  0  0  0  0  0  0  0  0
   11.2128   -1.7052    0.0000 N   0  0  0  0  0  0  0  0  0  0  0  0
   11.9273   -1.2927    0.0000 N   0  0  0  0  0  0  0  0  0  0  0  0
   12.0136   -0.4722    0.0000 N   0  0  0  0  0  0  0  0  0  0  0  0
   12.8205   -0.3007    0.0000 N   0  0  0  0  0  0  0  0  0  0  0  0
   13.2330   -1.0152    0.0000 C   0  0  0  0  0  0  0  0  0  0  0  0
   14.0400   -1.1867    0.0000 C   0  0  0  0  0  0  0  0  0  0  0  0
   14.2949   -1.9713    0.0000 C   0  0  0  0  0  0  0  0  0  0  0  0
   13.7429   -2.5844    0.0000 C   0  0  0  0  0  0  0  0  0  0  0  0
   12.9359   -2.4129    0.0000 C   0  0  0  0  0  0  0  0  0  0  0  0
   12.6810   -1.6283    0.0000 C   0  0  0  0  0  0  0  0  0  0  0  0
  1  2  2  0  0  0  0
  2  3  1  0  0  0  0
  2  4  1  0  0  0  0
  4  5  1  0  0  0  0
  5  6  1  0  0  0  0
  6  7  1  0  0  0  0
  7  8  1  0  0  0  0
  8  9  1  0  0  0  0
  9 10  1  0  0  0  0
 10 11  4  0  0  0  0
 11 12  4  0  0  0  0
 12 13  4  0  0  0  0
 13 14  4  0  0  0  0
 14 15  4  0  0  0  0
 15 16  4  0  0  0  0
 16 17  4  0  0  0  0
 17 18  4  0  0  0  0
 13 18  4  0  0  0  0
 10 18  4  0  0  0  0
M  END
>  <CdId>
579

>  <Mol Weight>
248.286

>  <Formula>
C12H16N4O2

>  <Molecule ChEMBL ID>
CHEMBL4442292

>  <Molecule Max Phase>
None

>  <Molecular Weight>
248.29

>  <#RO5 Violations>
0

>  <AlogP>
1.62

>  <Compound Key>
6

>  <Standard Type>
IC50

>  <Standard Relation>
'='

>  <Standard Value>
2310000.0

>  <Standard Units>
nM

$$$$

  Mrv2114 03112311372D          

 28 32  0  0  0  0            999 V2000
   10.3229    0.7109    0.0000 O   0  0  0  0  0  0  0  0  0  0  0  0
    9.5024    0.7971    0.0000 C   0  0  0  0  0  0  0  0  0  0  0  0
    9.0175    0.1297    0.0000 C   0  0  0  0  0  0  0  0  0  0  0  0
    8.1970    0.2159    0.0000 N   0  0  0  0  0  0  0  0  0  0  0  0
    7.6450   -0.3972    0.0000 C   0  0  0  0  0  0  0  0  0  0  0  0
    6.8913   -0.0616    0.0000 C   0  0  0  0  0  0  0  0  0  0  0  0
    6.1768   -0.4741    0.0000 C   0  0  0  0  0  0  0  0  0  0  0  0
    6.1768   -1.2991    0.0000 C   0  0  0  0  0  0  0  0  0  0  0  0
    5.4623   -1.7116    0.0000 N   0  0  0  0  0  0  0  0  0  0  0  0
    4.7479   -1.2991    0.0000 C   0  0  0  0  0  0  0  0  0  0  0  0
    3.9633   -1.5540    0.0000 N   0  0  0  0  0  0  0  0  0  0  0  0
    3.4783   -0.8866    0.0000 N   0  0  0  0  0  0  0  0  0  0  0  0
    3.9633   -0.2192    0.0000 N   0  0  0  0  0  0  0  0  0  0  0  0
    3.7083    0.5655    0.0000 C   0  0  0  0  0  0  0  0  0  0  0  0
    4.2603    1.1785    0.0000 C   0  0  0  0  0  0  0  0  0  0  0  0
    4.0054    1.9632    0.0000 C   0  0  0  0  0  0  0  0  0  0  0  0
    4.5574    2.5763    0.0000 C   0  0  0  0  0  0  0  0  0  0  0  0
    5.3644    2.4047    0.0000 C   0  0  0  0  0  0  0  0  0  0  0  0
    5.9164    3.0178    0.0000 N   0  0  0  0  0  0  0  0  0  0  0  0
    6.7234    2.8463    0.0000 C   0  0  0  0  0  0  0  0  0  0  0  0
    6.9784    2.0617    0.0000 C   0  0  0  0  0  0  0  0  0  0  0  0
    6.4263    1.4486    0.0000 C   0  0  0  0  0  0  0  0  0  0  0  0
    5.6194    1.6201    0.0000 C   0  0  0  0  0  0  0  0  0  0  0  0
    5.0673    1.0070    0.0000 C   0  0  0  0  0  0  0  0  0  0  0  0
    4.7479   -0.4741    0.0000 C   0  0  0  0  0  0  0  0  0  0  0  0
    5.4623   -0.0616    0.0000 N   0  0  0  0  0  0  0  0  0  0  0  0
    6.9775    0.7589    0.0000 C   0  0  0  0  0  0  0  0  0  0  0  0
    7.7845    0.9304    0.0000 N   0  0  0  0  0  0  0  0  0  0  0  0
  1  2  1  0  0  0  0
  2  3  1  0  0  0  0
  3  4  1  0  0  0  0
  4  5  4  0  0  0  0
  5  6  4  0  0  0  0
  6  7  1  0  0  0  0
  7  8  4  0  0  0  0
  8  9  4  0  0  0  0
  9 10  4  0  0  0  0
 10 11  4  0  0  0  0
 11 12  4  0  0  0  0
 12 13  4  0  0  0  0
 13 14  1  0  0  0  0
 14 15  1  0  0  0  0
 15 16  4  0  0  0  0
 16 17  4  0  0  0  0
 17 18  4  0  0  0  0
 18 19  4  0  0  0  0
 19 20  4  0  0  0  0
 20 21  4  0  0  0  0
 21 22  4  0  0  0  0
 22 23  4  0  0  0  0
 18 23  4  0  0  0  0
 23 24  4  0  0  0  0
 15 24  4  0  0  0  0
 13 25  4  0  0  0  0
 10 25  4  0  0  0  0
 25 26  4  0  0  0  0
  7 26  4  0  0  0  0
  6 27  4  0  0  0  0
 27 28  4  0  0  0  0
  4 28  4  0  0  0  0
M  END
>  <CdId>
580

>  <Mol Weight>
372.392

>  <Formula>
C19H16N8O

>  <Molecule ChEMBL ID>
CHEMBL2001019

>  <Molecule Name>
PF-04217903

>  <Molecule Max Phase>
1

>  <Molecular Weight>
372.39

>  <#RO5 Violations>
0

>  <AlogP>
1.67

>  <Compound Key>
2, PF-04217903

>  <Standard Type>
IC50

>  <Standard Relation>
'>'

>  <Standard Value>
30000.0

>  <Standard Units>
nM

$$$$

  Mrv2114 03112311372D          

 25 28  0  0  1  0            999 V2000
    6.6779    3.2067    0.0000 C   0  0  0  0  0  0  0  0  0  0  0  0
    6.1929    2.5392    0.0000 C   0  0  0  0  0  0  0  0  0  0  0  0
    5.3725    2.6255    0.0000 C   0  0  0  0  0  0  0  0  0  0  0  0
    4.8204    2.0124    0.0000 N   0  0  0  0  0  0  0  0  0  0  0  0
    4.0668    2.3479    0.0000 C   0  0  0  0  0  0  0  0  0  0  0  0
    3.3523    1.9354    0.0000 C   0  0  0  0  0  0  0  0  0  0  0  0
    3.3523    1.1104    0.0000 C   0  0  0  0  0  0  0  0  0  0  0  0
    2.6378    0.6979    0.0000 C   0  0  0  0  0  0  0  0  0  0  0  0
    1.9233    1.1104    0.0000 C   0  0  0  0  0  0  0  0  0  0  0  0
    1.9233    1.9354    0.0000 C   0  0  0  0  0  0  0  0  0  0  0  0
    2.6378    2.3479    0.0000 C   0  0  0  0  0  0  0  0  0  0  0  0
    1.1387    2.1904    0.0000 C   0  0  0  0  0  0  0  0  0  0  0  0
    0.6538    1.5229    0.0000 C   0  0  0  0  0  0  0  0  0  0  0  0
    1.1387    0.8555    0.0000 C   0  0  1  0  0  0  0  0  0  0  0  0
    0.8838    0.0709    0.0000 N   0  0  0  0  0  0  0  0  0  0  0  0
    0.0768   -0.1006    0.0000 C   0  0  0  0  0  0  0  0  0  0  0  0
   -0.4752    0.5124    0.0000 O   0  0  0  0  0  0  0  0  0  0  0  0
   -0.1781   -0.8853    0.0000 C   0  0  0  0  0  0  0  0  0  0  0  0
    0.3068   -1.5527    0.0000 C   0  0  0  0  0  0  0  0  0  0  0  0
   -0.1781   -2.2201    0.0000 N   0  0  0  0  0  0  0  0  0  0  0  0
   -0.9628   -1.9652    0.0000 N   0  0  0  0  0  0  0  0  0  0  0  0
   -1.6302   -2.4501    0.0000 C   0  0  0  0  0  0  0  0  0  0  0  0
   -0.9628   -1.1402    0.0000 C   0  0  0  0  0  0  0  0  0  0  0  0
    4.1530    3.1684    0.0000 N   0  0  0  0  0  0  0  0  0  0  0  0
    4.9600    3.3400    0.0000 O   0  0  0  0  0  0  0  0  0  0  0  0
  1  2  1  0  0  0  0
  2  3  1  0  0  0  0
  3  4  4  0  0  0  0
  4  5  4  0  0  0  0
  5  6  1  0  0  0  0
  6  7  4  0  0  0  0
  7  8  4  0  0  0  0
  8  9  4  0  0  0  0
  9 10  4  0  0  0  0
 10 11  4  0  0  0  0
  6 11  4  0  0  0  0
 10 12  1  0  0  0  0
 12 13  1  0  0  0  0
 14 13  1  0  0  0  0
 14  9  1  0  0  0  0
 14 15  1  6  0  0  0
 15 16  1  0  0  0  0
 16 17  2  0  0  0  0
 16 18  1  0  0  0  0
 18 19  4  0  0  0  0
 19 20  4  0  0  0  0
 20 21  4  0  0  0  0
 21 22  1  0  0  0  0
 21 23  4  0  0  0  0
 18 23  4  0  0  0  0
  5 24  4  0  0  0  0
 24 25  4  0  0  0  0
  3 25  4  0  0  0  0
M  END
>  <CdId>
581

>  <Mol Weight>
337.383

>  <Formula>
C18H19N5O2

>  <Molecule ChEMBL ID>
CHEMBL4847050

>  <Molecule Name>
AFICAMTEN

>  <Molecule Max Phase>
1

>  <Molecular Weight>
337.38

>  <#RO5 Violations>
0

>  <AlogP>
2.45

>  <Compound Key>
Aficamten

>  <Standard Type>
IC50

>  <Standard Relation>
'>'

>  <Standard Value>
100000.0

>  <Standard Units>
nM

$$$$

  Mrv2114 03112311372D          

 33 38  0  0  0  0            999 V2000
    3.3487   -0.6052    0.0000 O   0  0  0  0  0  0  0  0  0  0  0  0
    4.1737   -0.6052    0.0000 C   0  0  0  0  0  0  0  0  0  0  0  0
    4.6586    0.0622    0.0000 C   0  0  0  0  0  0  0  0  0  0  0  0
    5.4432   -0.1927    0.0000 C   0  0  0  0  0  0  0  0  0  0  0  0
    6.1577    0.2198    0.0000 C   0  0  0  0  0  0  0  0  0  0  0  0
    6.8722   -0.1927    0.0000 C   0  0  0  0  0  0  0  0  0  0  0  0
    7.5866    0.2198    0.0000 C   0  0  0  0  0  0  0  0  0  0  0  0
    7.6729    1.0403    0.0000 C   0  0  0  0  0  0  0  0  0  0  0  0
    7.0598    1.5923    0.0000 C   0  0  0  0  0  0  0  0  0  0  0  0
    6.2751    1.3374    0.0000 C   0  0  0  0  0  0  0  0  0  0  0  0
    5.6620    1.8894    0.0000 C   0  0  0  0  0  0  0  0  0  0  0  0
    5.8336    2.6964    0.0000 C   0  0  0  0  0  0  0  0  0  0  0  0
    5.2205    3.2484    0.0000 F   0  0  0  0  0  0  0  0  0  0  0  0
    6.6182    2.9513    0.0000 C   0  0  0  0  0  0  0  0  0  0  0  0
    7.2313    2.3993    0.0000 C   0  0  0  0  0  0  0  0  0  0  0  0
    8.4798    1.2118    0.0000 N   0  0  0  0  0  0  0  0  0  0  0  0
    8.8923    0.4973    0.0000 N   0  0  0  0  0  0  0  0  0  0  0  0
    9.6993    0.3258    0.0000 C   0  0  0  0  0  0  0  0  0  0  0  0
   10.2513    0.9389    0.0000 N   0  0  0  0  0  0  0  0  0  0  0  0
    9.9964    1.7235    0.0000 C   0  0  0  0  0  0  0  0  0  0  0  0
   10.5484    2.3366    0.0000 C   0  0  0  0  0  0  0  0  0  0  0  0
   11.3554    2.1651    0.0000 C   0  0  0  0  0  0  0  0  0  0  0  0
   11.9074    2.7782    0.0000 O   0  0  0  0  0  0  0  0  0  0  0  0
   11.6103    1.3805    0.0000 C   0  0  0  0  0  0  0  0  0  0  0  0
   11.0583    0.7674    0.0000 C   0  0  0  0  0  0  0  0  0  0  0  0
    9.9542   -0.4588    0.0000 N   0  0  0  0  0  0  0  0  0  0  0  0
    9.4022   -1.0719    0.0000 C   0  0  0  0  0  0  0  0  0  0  0  0
    8.5952   -0.9004    0.0000 C   0  0  0  0  0  0  0  0  0  0  0  0
    8.3403   -0.1158    0.0000 C   0  0  0  0  0  0  0  0  0  0  0  0
    6.8722   -1.0177    0.0000 C   0  0  0  0  0  0  0  0  0  0  0  0
    6.1577   -1.4302    0.0000 C   0  0  0  0  0  0  0  0  0  0  0  0
    5.4432   -1.0177    0.0000 C   0  0  0  0  0  0  0  0  0  0  0  0
    4.6586   -1.2726    0.0000 N   0  0  0  0  0  0  0  0  0  0  0  0
  1  2  2  0  0  0  0
  2  3  1  0  0  0  0
  3  4  1  0  0  0  0
  4  5  4  0  0  0  0
  5  6  4  0  0  0  0
  6  7  1  0  0  0  0
  7  8  4  0  0  0  0
  8  9  1  0  0  0  0
  9 10  4  0  0  0  0
 10 11  4  0  0  0  0
 11 12  4  0  0  0  0
 12 13  1  0  0  0  0
 12 14  4  0  0  0  0
 14 15  4  0  0  0  0
  9 15  4  0  0  0  0
  8 16  4  0  0  0  0
 16 17  4  0  0  0  0
 17 18  4  0  0  0  0
 18 19  1  0  0  0  0
 19 20  1  0  0  0  0
 20 21  1  0  0  0  0
 21 22  1  0  0  0  0
 22 23  1  0  0  0  0
 22 24  1  0  0  0  0
 24 25  1  0  0  0  0
 19 25  1  0  0  0  0
 18 26  4  0  0  0  0
 26 27  4  0  0  0  0
 27 28  4  0  0  0  0
 28 29  4  0  0  0  0
  7 29  4  0  0  0  0
 17 29  4  0  0  0  0
  6 30  4  0  0  0  0
 30 31  4  0  0  0  0
 31 32  4  0  0  0  0
  4 32  4  0  0  0  0
 32 33  1  0  0  0  0
  2 33  1  0  0  0  0
M  END
>  <CdId>
582

>  <Mol Weight>
443.482

>  <Formula>
C25H22FN5O2

>  <Molecule ChEMBL ID>
CHEMBL4436028

>  <Molecule Max Phase>
None

>  <Molecular Weight>
443.48

>  <#RO5 Violations>
0

>  <AlogP>
3.66

>  <Compound Key>
JNJ-61432059; 26

>  <Standard Type>
IC50

>  <Standard Relation>
'='

>  <Standard Value>
3000.0

>  <Standard Units>
nM

$$$$

  Mrv2114 03112311372D          

 34 39  0  0  0  0            999 V2000
    6.3584    1.1270    0.0000 O   0  0  0  0  0  0  0  0  0  0  0  0
    5.9459    0.4125    0.0000 C   0  0  0  0  0  0  0  0  0  0  0  0
    6.3584   -0.3020    0.0000 O   0  0  0  0  0  0  0  0  0  0  0  0
    5.1209    0.4125    0.0000 C   0  0  0  0  0  0  0  0  0  0  0  0
    4.7084   -0.3020    0.0000 C   0  0  0  0  0  0  0  0  0  0  0  0
    3.8834   -0.3020    0.0000 C   0  0  0  0  0  0  0  0  0  0  0  0
    3.4709    0.4125    0.0000 C   0  0  0  0  0  0  0  0  0  0  0  0
    2.6459    0.4125    0.0000 N   0  0  0  0  0  0  0  0  0  0  0  0
    2.2334   -0.3020    0.0000 C   0  0  0  0  0  0  0  0  0  0  0  0
    1.4084   -0.3020    0.0000 C   0  0  0  0  0  0  0  0  0  0  0  0
    0.9959    0.4125    0.0000 C   0  0  0  0  0  0  0  0  0  0  0  0
    0.4125   -0.1709    0.0000 C   0  0  0  0  0  0  0  0  0  0  0  0
   -0.1709    0.4125    0.0000 C   0  0  0  0  0  0  0  0  0  0  0  0
   -0.9959    0.4125    0.0000 C   0  0  0  0  0  0  0  0  0  0  0  0
   -1.4808   -0.2549    0.0000 C   0  0  0  0  0  0  0  0  0  0  0  0
   -1.2258   -1.0396    0.0000 C   0  0  0  0  0  0  0  0  0  0  0  0
   -0.4189   -1.2111    0.0000 C   0  0  0  0  0  0  0  0  0  0  0  0
    0.1332   -0.5980    0.0000 Cl  0  0  0  0  0  0  0  0  0  0  0  0
   -0.1639   -1.9957    0.0000 C   0  0  0  0  0  0  0  0  0  0  0  0
   -0.7160   -2.6088    0.0000 C   0  0  0  0  0  0  0  0  0  0  0  0
   -1.5229   -2.4373    0.0000 C   0  0  0  0  0  0  0  0  0  0  0  0
   -1.7779   -1.6527    0.0000 C   0  0  0  0  0  0  0  0  0  0  0  0
   -2.5849   -1.4811    0.0000 Cl  0  0  0  0  0  0  0  0  0  0  0  0
   -2.2654   -0.0000    0.0000 N   0  0  0  0  0  0  0  0  0  0  0  0
   -2.2654    0.8250    0.0000 O   0  0  0  0  0  0  0  0  0  0  0  0
   -1.4808    1.0799    0.0000 C   0  0  0  0  0  0  0  0  0  0  0  0
   -1.2258    1.8646    0.0000 C   0  0  0  0  0  0  0  0  0  0  0  0
   -1.3974    2.6715    0.0000 C   0  0  0  0  0  0  0  0  0  0  0  0
   -0.6128    2.4166    0.0000 C   0  0  0  0  0  0  0  0  0  0  0  0
    0.4125    0.9959    0.0000 C   0  0  0  0  0  0  0  0  0  0  0  0
    1.4084    1.1270    0.0000 C   0  0  0  0  0  0  0  0  0  0  0  0
    2.2334    1.1270    0.0000 C   0  0  0  0  0  0  0  0  0  0  0  0
    3.8834    1.1270    0.0000 C   0  0  0  0  0  0  0  0  0  0  0  0
    4.7084    1.1270    0.0000 N   0  0  0  0  0  0  0  0  0  0  0  0
  1  2  2  0  0  0  0
  2  3  1  0  0  0  0
  2  4  1  0  0  0  0
  4  5  4  0  0  0  0
  5  6  4  0  0  0  0
  6  7  4  0  0  0  0
  7  8  1  0  0  0  0
  8  9  1  0  0  0  0
  9 10  1  0  0  0  0
 10 11  1  0  0  0  0
 11 12  1  0  0  0  0
 12 13  2  0  0  0  0
 13 14  1  0  0  0  0
 14 15  4  0  0  0  0
 15 16  1  0  0  0  0
 16 17  4  0  0  0  0
 17 18  1  0  0  0  0
 17 19  4  0  0  0  0
 19 20  4  0  0  0  0
 20 21  4  0  0  0  0
 21 22  4  0  0  0  0
 16 22  4  0  0  0  0
 22 23  1  0  0  0  0
 15 24  4  0  0  0  0
 24 25  4  0  0  0  0
 25 26  4  0  0  0  0
 14 26  4  0  0  0  0
 26 27  1  0  0  0  0
 27 28  1  0  0  0  0
 28 29  1  0  0  0  0
 27 29  1  0  0  0  0
 13 30  1  0  0  0  0
 11 30  1  0  0  0  0
 11 31  1  0  0  0  0
 31 32  1  0  0  0  0
  8 32  1  0  0  0  0
  7 33  4  0  0  0  0
 33 34  4  0  0  0  0
  4 34  4  0  0  0  0
M  END
>  <CdId>
583

>  <Mol Weight>
496.39

>  <Formula>
C26H23Cl2N3O3

>  <Molecule ChEMBL ID>
CHEMBL4868516

>  <Molecule Max Phase>
None

>  <Molecular Weight>
496.39

>  <#RO5 Violations>
1

>  <AlogP>
6.69

>  <Compound Key>
14

>  <Standard Type>
IC50

>  <Standard Relation>
'='

>  <Standard Value>
7400.0

>  <Standard Units>
nM

$$$$

  Mrv2114 03112311372D          

 38 44  0  0  0  0            999 V2000
    3.9252   -4.1174    0.0000 C   0  0  0  0  0  0  0  0  0  0  0  0
    4.1801   -3.3328    0.0000 N   0  0  0  0  0  0  0  0  0  0  0  0
    3.6952   -2.6653    0.0000 C   0  0  0  0  0  0  0  0  0  0  0  0
    4.1801   -1.9979    0.0000 C   0  0  0  0  0  0  0  0  0  0  0  0
    3.9252   -1.2133    0.0000 C   0  0  0  0  0  0  0  0  0  0  0  0
    3.1182   -1.0417    0.0000 O   0  0  0  0  0  0  0  0  0  0  0  0
    4.4772   -0.6002    0.0000 O   0  0  0  0  0  0  0  0  0  0  0  0
    4.9647   -2.2528    0.0000 C   0  0  0  0  0  0  0  0  0  0  0  0
    5.6792   -1.8403    0.0000 C   0  0  0  0  0  0  0  0  0  0  0  0
    6.3937   -2.2528    0.0000 C   0  0  0  0  0  0  0  0  0  0  0  0
    6.3937   -3.0778    0.0000 C   0  0  0  0  0  0  0  0  0  0  0  0
    7.1082   -3.4903    0.0000 N   0  0  0  0  0  0  0  0  0  0  0  0
    7.8226   -3.0778    0.0000 C   0  0  0  0  0  0  0  0  0  0  0  0
    8.5371   -3.4903    0.0000 C   0  0  0  0  0  0  0  0  0  0  0  0
    8.5371   -4.3153    0.0000 C   0  0  0  0  0  0  0  0  0  0  0  0
    9.3340   -4.1018    0.0000 C   0  0  0  0  0  0  0  0  0  0  0  0
    9.5475   -4.8987    0.0000 C   0  0  0  0  0  0  0  0  0  0  0  0
   10.2620   -5.3112    0.0000 C   0  0  0  0  0  0  0  0  0  0  0  0
   11.0157   -4.9756    0.0000 C   0  0  0  0  0  0  0  0  0  0  0  0
   11.1872   -4.1687    0.0000 C   0  0  0  0  0  0  0  0  0  0  0  0
   10.5741   -3.6166    0.0000 C   0  0  0  0  0  0  0  0  0  0  0  0
    9.7895   -3.8716    0.0000 Cl  0  0  0  0  0  0  0  0  0  0  0  0
   10.7456   -2.8096    0.0000 C   0  0  0  0  0  0  0  0  0  0  0  0
   11.5302   -2.5547    0.0000 C   0  0  0  0  0  0  0  0  0  0  0  0
   12.1433   -3.1067    0.0000 C   0  0  0  0  0  0  0  0  0  0  0  0
   11.9718   -3.9137    0.0000 C   0  0  0  0  0  0  0  0  0  0  0  0
   12.5849   -4.4657    0.0000 Cl  0  0  0  0  0  0  0  0  0  0  0  0
   11.5677   -5.5887    0.0000 N   0  0  0  0  0  0  0  0  0  0  0  0
   11.1552   -6.3032    0.0000 O   0  0  0  0  0  0  0  0  0  0  0  0
   10.3482   -6.1317    0.0000 C   0  0  0  0  0  0  0  0  0  0  0  0
    9.7351   -6.6837    0.0000 C   0  0  0  0  0  0  0  0  0  0  0  0
    9.4802   -7.4683    0.0000 C   0  0  0  0  0  0  0  0  0  0  0  0
    8.9282   -6.8552    0.0000 C   0  0  0  0  0  0  0  0  0  0  0  0
    8.7506   -5.1122    0.0000 C   0  0  0  0  0  0  0  0  0  0  0  0
    7.8226   -4.7278    0.0000 C   0  0  0  0  0  0  0  0  0  0  0  0
    7.1082   -4.3153    0.0000 C   0  0  0  0  0  0  0  0  0  0  0  0
    5.6792   -3.4903    0.0000 C   0  0  0  0  0  0  0  0  0  0  0  0
    4.9647   -3.0778    0.0000 C   0  0  0  0  0  0  0  0  0  0  0  0
  1  2  1  0  0  0  0
  2  3  4  0  0  0  0
  3  4  4  0  0  0  0
  4  5  1  0  0  0  0
  5  6  2  0  0  0  0
  5  7  1  0  0  0  0
  4  8  4  0  0  0  0
  8  9  4  0  0  0  0
  9 10  4  0  0  0  0
 10 11  4  0  0  0  0
 11 12  1  0  0  0  0
 12 13  1  0  0  0  0
 13 14  1  0  0  0  0
 14 15  1  0  0  0  0
 15 16  1  0  0  0  0
 16 17  2  0  0  0  0
 17 18  1  0  0  0  0
 18 19  4  0  0  0  0
 19 20  1  0  0  0  0
 20 21  4  0  0  0  0
 21 22  1  0  0  0  0
 21 23  4  0  0  0  0
 23 24  4  0  0  0  0
 24 25  4  0  0  0  0
 25 26  4  0  0  0  0
 20 26  4  0  0  0  0
 26 27  1  0  0  0  0
 19 28  4  0  0  0  0
 28 29  4  0  0  0  0
 29 30  4  0  0  0  0
 18 30  4  0  0  0  0
 30 31  1  0  0  0  0
 31 32  1  0  0  0  0
 32 33  1  0  0  0  0
 31 33  1  0  0  0  0
 17 34  1  0  0  0  0
 15 34  1  0  0  0  0
 15 35  1  0  0  0  0
 35 36  1  0  0  0  0
 12 36  1  0  0  0  0
 11 37  4  0  0  0  0
 37 38  4  0  0  0  0
  8 38  4  0  0  0  0
  2 38  4  0  0  0  0
M  END
>  <CdId>
584

>  <Mol Weight>
548.46

>  <Formula>
C30H27Cl2N3O3

>  <Molecule ChEMBL ID>
CHEMBL4853954

>  <Molecule Max Phase>
None

>  <Molecular Weight>
548.47

>  <#RO5 Violations>
2

>  <AlogP>
7.79

>  <Compound Key>
15

>  <Standard Type>
IC50

$$$$

  Mrv2114 03112311372D          

 25 28  0  0  0  0            999 V2000
    0.7198    1.3553    0.0000 Cl  0  0  0  0  0  0  0  0  0  0  0  0
    1.5268    1.5268    0.0000 C   0  0  0  0  0  0  0  0  0  0  0  0
    1.5268    2.3518    0.0000 C   0  0  0  0  0  0  0  0  0  0  0  0
    2.2413    2.7643    0.0000 C   0  0  0  0  0  0  0  0  0  0  0  0
    2.9557    2.3518    0.0000 C   0  0  0  0  0  0  0  0  0  0  0  0
    2.9557    1.5268    0.0000 C   0  0  0  0  0  0  0  0  0  0  0  0
    2.2413    1.1143    0.0000 C   0  0  0  0  0  0  0  0  0  0  0  0
    2.2413    0.2893    0.0000 C   0  0  0  0  0  0  0  0  0  0  0  0
    1.4163    0.2893    0.0000 C   0  0  0  0  0  0  0  0  0  0  0  0
    1.0038   -0.4252    0.0000 C   0  0  0  0  0  0  0  0  0  0  0  0
    0.1788   -0.4252    0.0000 C   0  0  0  0  0  0  0  0  0  0  0  0
   -0.2337    0.2893    0.0000 C   0  0  0  0  0  0  0  0  0  0  0  0
    0.1788    1.0038    0.0000 C   0  0  0  0  0  0  0  0  0  0  0  0
    1.0038    1.0038    0.0000 C   0  0  0  0  0  0  0  0  0  0  0  0
    3.0663    0.2893    0.0000 C   0  0  0  0  0  0  0  0  0  0  0  0
    3.4788    1.0038    0.0000 C   0  0  0  0  0  0  0  0  0  0  0  0
    4.3038    1.0038    0.0000 C   0  0  0  0  0  0  0  0  0  0  0  0
    4.7163    0.2893    0.0000 C   0  0  0  0  0  0  0  0  0  0  0  0
    4.3038   -0.4252    0.0000 C   0  0  0  0  0  0  0  0  0  0  0  0
    3.4788   -0.4252    0.0000 C   0  0  0  0  0  0  0  0  0  0  0  0
    2.2413   -0.5357    0.0000 N   0  0  0  0  0  0  0  0  0  0  0  0
    2.9087   -1.0206    0.0000 C   0  0  0  0  0  0  0  0  0  0  0  0
    2.6538   -1.8053    0.0000 C   0  0  0  0  0  0  0  0  0  0  0  0
    1.8288   -1.8053    0.0000 N   0  0  0  0  0  0  0  0  0  0  0  0
    1.5738   -1.0206    0.0000 C   0  0  0  0  0  0  0  0  0  0  0  0
  1  2  1  0  0  0  0
  2  3  4  0  0  0  0
  3  4  4  0  0  0  0
  4  5  4  0  0  0  0
  5  6  4  0  0  0  0
  6  7  4  0  0  0  0
  2  7  4  0  0  0  0
  7  8  1  0  0  0  0
  8  9  1  0  0  0  0
  9 10  4  0  0  0  0
 10 11  4  0  0  0  0
 11 12  4  0  0  0  0
 12 13  4  0  0  0  0
 13 14  4  0  0  0  0
  9 14  4  0  0  0  0
  8 15  1  0  0  0  0
 15 16  4  0  0  0  0
 16 17  4  0  0  0  0
 17 18  4  0  0  0  0
 18 19  4  0  0  0  0
 19 20  4  0  0  0  0
 15 20  4  0  0  0  0
  8 21  1  0  0  0  0
 21 22  4  0  0  0  0
 22 23  4  0  0  0  0
 23 24  4  0  0  0  0
 24 25  4  0  0  0  0
 21 25  4  0  0  0  0
M  END
>  <CdId>
585

>  <Mol Weight>
344.84

>  <Formula>
C22H17ClN2

>  <Molecule ChEMBL ID>
CHEMBL104

>  <Molecule Name>
CLOTRIMAZOLE

>  <Molecule Max Phase>
4

>  <Molecular Weight>
344.85

>  <#RO5 Violations>
1

>  <AlogP>
5.38

>  <Compound Key>
SID170464807

>  <Standard Type>
IC50

>  <Standard Relation>
'='

>  <Standard Value>
803.0

>  <Standard Units>
nM

$$$$

  Mrv2114 03112311372D          

 43 46  0  0  0  0            999 V2000
    0.7145   -0.4125    0.0000 C   0  0  0  0  0  0  0  0  0  0  0  0
    0.0000   -0.0000    0.0000 C   0  0  0  0  0  0  0  0  0  0  0  0
   -0.7145   -0.4125    0.0000 N   0  0  0  0  0  0  0  0  0  0  0  0
   -0.7145   -1.2375    0.0000 C   0  0  0  0  0  0  0  0  0  0  0  0
    0.0000   -1.6500    0.0000 C   0  0  0  0  0  0  0  0  0  0  0  0
    0.0000   -2.4750    0.0000 C   0  0  0  0  0  0  0  0  0  0  0  0
    0.7145   -2.8875    0.0000 C   0  0  0  0  0  0  0  0  0  0  0  0
    1.4289   -2.4750    0.0000 C   0  0  0  0  0  0  0  0  0  0  0  0
    2.1434   -2.8875    0.0000 C   0  0  0  0  0  0  0  0  0  0  0  0
    2.1434   -3.7125    0.0000 C   0  0  0  0  0  0  0  0  0  0  0  0
    2.8579   -4.1250    0.0000 O   0  0  0  0  0  0  0  0  0  0  0  0
    2.8579   -4.9500    0.0000 C   0  0  0  0  0  0  0  0  0  0  0  0
    3.5724   -5.3625    0.0000 C   0  0  0  0  0  0  0  0  0  0  0  0
    3.5724   -6.1875    0.0000 O   0  0  0  0  0  0  0  0  0  0  0  0
    4.2868   -6.6000    0.0000 C   0  0  0  0  0  0  0  0  0  0  0  0
    1.4289   -4.1250    0.0000 C   0  0  0  0  0  0  0  0  0  0  0  0
    0.7145   -3.7125    0.0000 C   0  0  0  0  0  0  0  0  0  0  0  0
   -0.7145   -2.8875    0.0000 C   0  0  0  0  0  0  0  0  0  0  0  0
   -1.4289   -2.4750    0.0000 C   0  0  0  0  0  0  0  0  0  0  0  0
   -2.1434   -2.8875    0.0000 C   0  0  0  0  0  0  0  0  0  0  0  0
   -2.1434   -3.7125    0.0000 O   0  0  0  0  0  0  0  0  0  0  0  0
   -2.8579   -2.4750    0.0000 N   0  0  0  0  0  0  0  0  0  0  0  0
   -3.5724   -2.8875    0.0000 C   0  0  0  0  0  0  0  0  0  0  0  0
   -4.2868   -2.4750    0.0000 C   0  0  0  0  0  0  0  0  0  0  0  0
   -5.0013   -2.8875    0.0000 C   0  0  0  0  0  0  0  0  0  0  0  0
   -5.0013   -3.7125    0.0000 C   0  0  0  0  0  0  0  0  0  0  0  0
   -5.7158   -2.4750    0.0000 C   0  0  0  0  0  0  0  0  0  0  0  0
   -5.7158   -1.6500    0.0000 C   0  0  0  0  0  0  0  0  0  0  0  0
   -6.4302   -1.2375    0.0000 C   0  0  0  0  0  0  0  0  0  0  0  0
   -5.0013   -1.2375    0.0000 N   0  0  0  0  0  0  0  0  0  0  0  0
   -4.2868   -1.6500    0.0000 C   0  0  0  0  0  0  0  0  0  0  0  0
   -3.5724   -1.2375    0.0000 O   0  0  0  0  0  0  0  0  0  0  0  0
   -1.4289   -1.6500    0.0000 C   0  0  0  0  0  0  0  0  0  0  0  0
   -2.1434   -1.2375    0.0000 C   0  0  0  0  0  0  0  0  0  0  0  0
   -1.4289   -0.0000    0.0000 C   0  0  1  0  0  0  0  0  0  0  0  0
   -2.1434   -0.4125    0.0000 C   0  0  0  0  0  0  0  0  0  0  0  0
   -2.8579    0.0000    0.0000 C   0  0  0  0  0  0  0  0  0  0  0  0
   -2.8579    0.8250    0.0000 C   0  0  2  0  0  0  0  0  0  0  0  0
   -3.5724    1.2375    0.0000 N   0  0  0  0  0  0  0  0  0  0  0  0
   -3.5724    2.0625    0.0000 C   0  0  0  0  0  0  0  0  0  0  0  0
   -4.2868    0.8250    0.0000 C   0  0  0  0  0  0  0  0  0  0  0  0
   -2.1434    1.2375    0.0000 C   0  0  0  0  0  0  0  0  0  0  0  0
   -1.4289    0.8250    0.0000 C   0  0  0  0  0  0  0  0  0  0  0  0
  1  2  1  0  0  0  0
  2  3  1  0  0  0  0
  3  4  1  0  0  0  0
  4  5  4  0  0  0  0
  5  6  4  0  0  0  0
  6  7  1  0  0  0  0
  7  8  4  0  0  0  0
  8  9  4  0  0  0  0
  9 10  4  0  0  0  0
 10 11  1  0  0  0  0
 11 12  1  0  0  0  0
 12 13  1  0  0  0  0
 13 14  1  0  0  0  0
 14 15  1  0  0  0  0
 10 16  4  0  0  0  0
 16 17  4  0  0  0  0
  7 17  4  0  0  0  0
  6 18  4  0  0  0  0
 18 19  4  0  0  0  0
 19 20  1  0  0  0  0
 20 21  2  0  0  0  0
 20 22  1  0  0  0  0
 22 23  1  0  0  0  0
 23 24  1  0  0  0  0
 24 25  4  0  0  0  0
 25 26  1  0  0  0  0
 25 27  4  0  0  0  0
 27 28  4  0  0  0  0
 28 29  1  0  0  0  0
 28 30  4  0  0  0  0
 30 31  4  0  0  0  0
 24 31  4  0  0  0  0
 31 32  2  0  0  0  0
 19 33  4  0  0  0  0
  4 33  4  0  0  0  0
 33 34  1  0  0  0  0
 35  3  1  1  0  0  0
 35 36  1  0  0  0  0
 36 37  1  0  0  0  0
 38 37  1  0  0  0  0
 38 39  1  6  0  0  0
 39 40  1  0  0  0  0
 39 41  1  0  0  0  0
 38 42  1  0  0  0  0
 42 43  1  0  0  0  0
 35 43  1  0  0  0  0
M  STY  1   1 DAT
M  SAL   1  1  30
M  SDT   1 MRV_IMPLICIT_H                                        
M  SDD   1     0.0000    0.0000    DR    ALL  0       0  
M  SED   1 IMPL_H1
M  END
>  <CdId>
586

>  <Mol Weight>
588.793

>  <Formula>
C35H48N4O4

>  <Molecule ChEMBL ID>
CHEMBL3672840

>  <Molecule Max Phase>
None

>  <Molecular Weight>
588.79

>  <#RO5 Violations>
2

>  <AlogP>
5.62

>  <Compound Key>
BDBM155253

>  <Standard Type>
IC50

>  <Standard Relation>
'>'

>  <Standard Value>
100000.0

>  <Standard Units>
nM

$$$$

  Mrv2114 03112311372D          

 39 44  0  0  0  0            999 V2000
    1.1809   -3.5477    0.0000 C   0  0  0  0  0  0  0  0  0  0  0  0
    1.4358   -2.7631    0.0000 N   0  0  0  0  0  0  0  0  0  0  0  0
    0.8838   -2.1500    0.0000 C   0  0  0  0  0  0  0  0  0  0  0  0
    0.0768   -2.3215    0.0000 O   0  0  0  0  0  0  0  0  0  0  0  0
    1.1387   -1.3654    0.0000 C   0  0  0  0  0  0  0  0  0  0  0  0
    0.6538   -0.6979    0.0000 C   0  0  0  0  0  0  0  0  0  0  0  0
   -0.1712   -0.6979    0.0000 C   0  0  0  0  0  0  0  0  0  0  0  0
   -0.5837   -1.4124    0.0000 C   0  0  0  0  0  0  0  0  0  0  0  0
   -1.4087   -1.4124    0.0000 C   0  0  0  0  0  0  0  0  0  0  0  0
   -1.8212   -0.6979    0.0000 C   0  0  0  0  0  0  0  0  0  0  0  0
   -2.6462   -0.6979    0.0000 F   0  0  0  0  0  0  0  0  0  0  0  0
   -1.4087    0.0165    0.0000 C   0  0  0  0  0  0  0  0  0  0  0  0
   -0.5837    0.0165    0.0000 C   0  0  0  0  0  0  0  0  0  0  0  0
    1.1387   -0.0305    0.0000 O   0  0  0  0  0  0  0  0  0  0  0  0
    1.9233   -0.2854    0.0000 C   0  0  0  0  0  0  0  0  0  0  0  0
    2.6378    0.1271    0.0000 C   0  0  0  0  0  0  0  0  0  0  0  0
    3.3523   -0.2854    0.0000 C   0  0  0  0  0  0  0  0  0  0  0  0
    3.3523   -1.1104    0.0000 C   0  0  0  0  0  0  0  0  0  0  0  0
    4.0668   -1.5229    0.0000 C   0  0  0  0  0  0  0  0  0  0  0  0
    4.7812   -1.1104    0.0000 C   0  0  0  0  0  0  0  0  0  0  0  0
    5.4957   -1.5229    0.0000 C   0  0  0  0  0  0  0  0  0  0  0  0
    6.2102   -1.1104    0.0000 C   0  0  0  0  0  0  0  0  0  0  0  0
    6.9246   -1.5229    0.0000 O   0  0  0  0  0  0  0  0  0  0  0  0
    6.2102   -0.2854    0.0000 N   0  0  0  0  0  0  0  0  0  0  0  0
    6.9246    0.1271    0.0000 C   0  0  0  0  0  0  0  0  0  0  0  0
    6.6425    0.9023    0.0000 C   0  0  0  0  0  0  0  0  0  0  0  0
    7.1728    1.5343    0.0000 C   0  0  0  0  0  0  0  0  0  0  0  0
    6.8906    2.3095    0.0000 C   0  0  0  0  0  0  0  0  0  0  0  0
    6.0781    2.4528    0.0000 C   0  0  0  0  0  0  0  0  0  0  0  0
    5.5478    1.8208    0.0000 C   0  0  0  0  0  0  0  0  0  0  0  0
    5.8300    1.0456    0.0000 N   0  0  0  0  0  0  0  0  0  0  0  0
    7.4549   -0.5049    0.0000 C   0  0  0  0  0  0  0  0  0  0  0  0
    7.7371    0.2703    0.0000 C   0  0  0  0  0  0  0  0  0  0  0  0
    5.4957   -2.3479    0.0000 C   0  0  0  0  0  0  0  0  0  0  0  0
    4.7812   -2.7604    0.0000 C   0  0  0  0  0  0  0  0  0  0  0  0
    4.0668   -2.3479    0.0000 C   0  0  0  0  0  0  0  0  0  0  0  0
    3.3523   -2.7604    0.0000 C   0  0  0  0  0  0  0  0  0  0  0  0
    2.6378   -1.5229    0.0000 C   0  0  0  0  0  0  0  0  0  0  0  0
    1.9233   -1.1104    0.0000 C   0  0  0  0  0  0  0  0  0  0  0  0
  1  2  1  0  0  0  0
  2  3  1  0  0  0  0
  3  4  2  0  0  0  0
  3  5  1  0  0  0  0
  5  6  4  0  0  0  0
  6  7  1  0  0  0  0
  7  8  4  0  0  0  0
  8  9  4  0  0  0  0
  9 10  4  0  0  0  0
 10 11  1  0  0  0  0
 10 12  4  0  0  0  0
 12 13  4  0  0  0  0
  7 13  4  0  0  0  0
  6 14  4  0  0  0  0
 14 15  4  0  0  0  0
 15 16  4  0  0  0  0
 16 17  4  0  0  0  0
 17 18  4  0  0  0  0
 18 19  1  0  0  0  0
 19 20  4  0  0  0  0
 20 21  4  0  0  0  0
 21 22  1  0  0  0  0
 22 23  2  0  0  0  0
 22 24  1  0  0  0  0
 24 25  1  0  0  0  0
 25 26  1  0  0  0  0
 26 27  4  0  0  0  0
 27 28  4  0  0  0  0
 28 29  4  0  0  0  0
 29 30  4  0  0  0  0
 30 31  4  0  0  0  0
 26 31  4  0  0  0  0
 25 32  1  0  0  0  0
 32 33  1  0  0  0  0
 25 33  1  0  0  0  0
 21 34  4  0  0  0  0
 34 35  4  0  0  0  0
 35 36  4  0  0  0  0
 19 36  4  0  0  0  0
 36 37  1  0  0  0  0
 18 38  4  0  0  0  0
 38 39  4  0  0  0  0
  5 39  4  0  0  0  0
 15 39  4  0  0  0  0
M  END
>  <CdId>
587

>  <Mol Weight>
519.576

>  <Formula>
C32H26FN3O3

>  <Molecule ChEMBL ID>
CHEMBL4078188

>  <Molecule Max Phase>
None

>  <Molecular Weight>
519.58

>  <#RO5 Violations>
2

>  <AlogP>
6.39

>  <Compound Key>
29

>  <Standard Type>
IC50

>  <Standard Relation>
'='

>  <Standard Value>
1000.0

>  <Standard Units>
nM

$$$$

  Mrv2114 03112311372D          

 30 31  0  0  1  0            999 V2000
    2.8579   -4.9500    0.0000 C   0  0  0  0  0  0  0  0  0  0  0  0
    2.8579   -5.7750    0.0000 C   0  0  0  0  0  0  0  0  0  0  0  0
    3.5724   -6.1875    0.0000 C   0  0  0  0  0  0  0  0  0  0  0  0
    3.5724   -7.0125    0.0000 C   0  0  0  0  0  0  0  0  0  0  0  0
    2.8579   -7.4250    0.0000 C   0  0  0  0  0  0  0  0  0  0  0  0
    2.8579   -8.2500    0.0000 C   0  0  0  0  0  0  0  0  0  0  0  0
    2.1434   -7.0125    0.0000 C   0  0  0  0  0  0  0  0  0  0  0  0
    1.4289   -7.4250    0.0000 O   0  0  0  0  0  0  0  0  0  0  0  0
    1.4289   -8.2500    0.0000 C   0  0  0  0  0  0  0  0  0  0  0  0
    0.7145   -8.6625    0.0000 C   0  0  0  0  0  0  0  0  0  0  0  0
    0.7145   -9.4875    0.0000 C   0  0  0  0  0  0  0  0  0  0  0  0
    0.0000   -9.9000    0.0000 C   0  0  0  0  0  0  0  0  0  0  0  0
   -0.4125   -9.1855    0.0000 C   0  0  0  0  0  0  0  0  0  0  0  0
    0.4125  -10.6145    0.0000 C   0  0  0  0  0  0  0  0  0  0  0  0
   -0.7145  -10.3125    0.0000 C   0  0  0  0  0  0  0  0  0  0  0  0
   -1.4289   -9.9000    0.0000 O   0  0  0  0  0  0  0  0  0  0  0  0
   -0.7145  -11.1375    0.0000 O   0  0  0  0  0  0  0  0  0  0  0  0
   -1.4289  -11.5500    0.0000 C   0  0  2  0  0  0  0  0  0  0  0  0
   -1.4289  -12.3750    0.0000 O   0  0  0  0  0  0  0  0  0  0  0  0
   -2.1434  -12.7875    0.0000 C   0  0  2  0  0  0  0  0  0  0  0  0
   -2.1434  -13.6125    0.0000 C   0  0  0  0  0  0  0  0  0  0  0  0
   -1.4289  -14.0250    0.0000 O   0  0  0  0  0  0  0  0  0  0  0  0
   -2.8579  -14.0250    0.0000 O   0  0  0  0  0  0  0  0  0  0  0  0
   -2.8579  -12.3750    0.0000 C   0  0  1  0  0  0  0  0  0  0  0  0
   -3.5724  -12.7875    0.0000 O   0  0  0  0  0  0  0  0  0  0  0  0
   -2.8579  -11.5500    0.0000 C   0  0  2  0  0  0  0  0  0  0  0  0
   -3.5724  -11.1375    0.0000 O   0  0  0  0  0  0  0  0  0  0  0  0
   -2.1434  -11.1375    0.0000 C   0  0  1  0  0  0  0  0  0  0  0  0
   -2.1434  -10.3125    0.0000 O   0  0  0  0  0  0  0  0  0  0  0  0
    2.1434   -6.1875    0.0000 C   0  0  0  0  0  0  0  0  0  0  0  0
  1  2  1  0  0  0  0
  2  3  4  0  0  0  0
  3  4  4  0  0  0  0
  4  5  4  0  0  0  0
  5  6  1  0  0  0  0
  5  7  4  0  0  0  0
  7  8  1  0  0  0  0
  8  9  1  0  0  0  0
  9 10  1  0  0  0  0
 10 11  1  0  0  0  0
 11 12  1  0  0  0  0
 12 13  1  0  0  0  0
 12 14  1  0  0  0  0
 12 15  1  0  0  0  0
 15 16  2  0  0  0  0
 15 17  1  0  0  0  0
 18 17  1  6  0  0  0
 18 19  1  0  0  0  0
 20 19  1  0  0  0  0
 20 21  1  6  0  0  0
 21 22  2  0  0  0  0
 21 23  1  0  0  0  0
 24 20  1  0  0  0  0
 24 25  1  1  0  0  0
 24 26  1  0  0  0  0
 26 27  1  6  0  0  0
 26 28  1  0  0  0  0
 28 18  1  0  0  0  0
 28 29  1  1  0  0  0
  7 30  4  0  0  0  0
  2 30  4  0  0  0  0
M  END
>  <CdId>
588

>  <Mol Weight>
426.462

>  <Formula>
C21H30O9

>  <Molecule ChEMBL ID>
CHEMBL2181817

>  <Molecule Max Phase>
None

>  <Molecular Weight>
426.46

>  <#RO5 Violations>
0

>  <AlogP>
0.92

>  <Compound Key>
Gemfibrozil-1-O-beta-glucuronide

>  <Standard Type>
IC50

>  <Standard Relation>
'='

>  <Standard Value>
1800.0

>  <Standard Units>
nM

$$$$

  Mrv2114 03112311372D          

 40 43  0  0  0  0            999 V2000
   -3.5724    5.4901    0.0000 C   0  0  0  0  0  0  0  0  0  0  0  0
   -2.8579    5.9026    0.0000 C   0  0  0  0  0  0  0  0  0  0  0  0
   -3.2704    6.6171    0.0000 C   0  0  0  0  0  0  0  0  0  0  0  0
   -2.4454    5.1882    0.0000 C   0  0  0  0  0  0  0  0  0  0  0  0
   -2.1434    6.3151    0.0000 N   0  0  0  0  0  0  0  0  0  0  0  0
   -2.1434    7.1401    0.0000 C   0  0  0  0  0  0  0  0  0  0  0  0
   -2.8579    7.5526    0.0000 O   0  0  0  0  0  0  0  0  0  0  0  0
   -1.4289    7.5526    0.0000 C   0  0  0  0  0  0  0  0  0  0  0  0
   -1.4289    8.3776    0.0000 C   0  0  0  0  0  0  0  0  0  0  0  0
   -0.7145    8.7901    0.0000 C   0  0  0  0  0  0  0  0  0  0  0  0
   -0.0000    8.3776    0.0000 C   0  0  0  0  0  0  0  0  0  0  0  0
    0.7145    8.7901    0.0000 O   0  0  0  0  0  0  0  0  0  0  0  0
    0.7145    9.6151    0.0000 C   0  0  0  0  0  0  0  0  0  0  0  0
   -0.0000   10.0276    0.0000 C   0  0  0  0  0  0  0  0  0  0  0  0
   -0.0000   10.8526    0.0000 C   0  0  0  0  0  0  0  0  0  0  0  0
   -0.7145   11.2651    0.0000 F   0  0  0  0  0  0  0  0  0  0  0  0
    0.7145   11.2651    0.0000 C   0  0  0  0  0  0  0  0  0  0  0  0
    0.7145   12.0901    0.0000 C   0  0  0  0  0  0  0  0  0  0  0  0
    1.4289   12.5026    0.0000 C   0  0  0  0  0  0  0  0  0  0  0  0
    1.4289   13.3276    0.0000 O   0  0  0  0  0  0  0  0  0  0  0  0
    2.1434   12.0901    0.0000 O   0  0  0  0  0  0  0  0  0  0  0  0
    1.4289   10.8526    0.0000 C   0  0  0  0  0  0  0  0  0  0  0  0
    1.4289   10.0276    0.0000 C   0  0  0  0  0  0  0  0  0  0  0  0
    2.1434    9.6151    0.0000 Cl  0  0  0  0  0  0  0  0  0  0  0  0
   -0.0000    7.5526    0.0000 C   0  0  0  0  0  0  0  0  0  0  0  0
    0.7145    7.1401    0.0000 N   0  0  0  0  0  0  0  0  0  0  0  0
    0.7145    6.3151    0.0000 S   0  0  0  0  0  0  0  0  0  0  0  0
   -0.1105    6.3151    0.0000 O   0  0  0  0  0  0  0  0  0  0  0  0
    1.5395    6.3151    0.0000 O   0  0  0  0  0  0  0  0  0  0  0  0
    0.7145    5.4901    0.0000 C   0  0  0  0  0  0  0  0  0  0  0  0
    1.4289    5.0776    0.0000 C   0  0  0  0  0  0  0  0  0  0  0  0
    1.4289    4.2526    0.0000 C   0  0  0  0  0  0  0  0  0  0  0  0
    0.7145    3.8401    0.0000 C   0  0  0  0  0  0  0  0  0  0  0  0
    0.7145    3.0151    0.0000 C   0  0  0  0  0  0  0  0  0  0  0  0
    1.1270    2.3007    0.0000 C   0  0  0  0  0  0  0  0  0  0  0  0
    0.3020    2.3007    0.0000 C   0  0  0  0  0  0  0  0  0  0  0  0
    0.0000    4.2526    0.0000 C   0  0  0  0  0  0  0  0  0  0  0  0
   -0.0000    5.0776    0.0000 C   0  0  0  0  0  0  0  0  0  0  0  0
   -0.7145    5.4901    0.0000 Cl  0  0  0  0  0  0  0  0  0  0  0  0
   -0.7145    7.1401    0.0000 C   0  0  0  0  0  0  0  0  0  0  0  0
  1  2  1  0  0  0  0
  2  3  1  0  0  0  0
  2  4  1  0  0  0  0
  2  5  1  0  0  0  0
  5  6  1  0  0  0  0
  6  7  2  0  0  0  0
  6  8  1  0  0  0  0
  8  9  4  0  0  0  0
  9 10  4  0  0  0  0
 10 11  4  0  0  0  0
 11 12  1  0  0  0  0
 12 13  1  0  0  0  0
 13 14  4  0  0  0  0
 14 15  4  0  0  0  0
 15 16  1  0  0  0  0
 15 17  4  0  0  0  0
 17 18  1  0  0  0  0
 18 19  1  0  0  0  0
 19 20  2  0  0  0  0
 19 21  1  0  0  0  0
 17 22  4  0  0  0  0
 22 23  4  0  0  0  0
 13 23  4  0  0  0  0
 23 24  1  0  0  0  0
 11 25  4  0  0  0  0
 25 26  1  0  0  0  0
 26 27  1  0  0  0  0
 27 28  2  0  0  0  0
 27 29  2  0  0  0  0
 27 30  1  0  0  0  0
 30 31  4  0  0  0  0
 31 32  4  0  0  0  0
 32 33  4  0  0  0  0
 33 34  1  0  0  0  0
 34 35  1  0  0  0  0
 35 36  1  0  0  0  0
 34 36  1  0  0  0  0
 33 37  4  0  0  0  0
 37 38  4  0  0  0  0
 30 38  4  0  0  0  0
 38 39  1  0  0  0  0
 25 40  4  0  0  0  0
  8 40  4  0  0  0  0
M  END
>  <CdId>
589

>  <Mol Weight>
609.49

>  <Formula>
C28H27Cl2FN2O6S

>  <Molecule ChEMBL ID>
CHEMBL1951575

>  <Molecule Name>
VIDUPIPRANT

>  <Molecule Max Phase>
2

>  <Molecular Weight>
609.5

>  <#RO5 Violations>
2

>  <AlogP>
6.76

>  <Compound Key>
AMG 853

>  <Standard Type>
IC50

>  <Standard Relation>
'='

>  <Standard Value>
5400.0

>  <Standard Units>
nM

$$$$

  Mrv2114 03112311372D          

 22 25  0  0  1  0            999 V2000
    3.6633   -1.1567    0.0000 O   0  0  0  0  0  0  0  0  0  0  0  0
    3.4084   -0.3721    0.0000 C   0  0  0  0  0  0  0  0  0  0  0  0
    3.9604    0.2410    0.0000 N   0  0  0  0  0  0  0  0  0  0  0  0
    3.7054    1.0256    0.0000 C   0  0  0  0  0  0  0  0  0  0  0  0
    4.2575    1.6387    0.0000 C   0  0  0  0  0  0  0  0  0  0  0  0
    5.0645    1.4672    0.0000 N   0  0  0  0  0  0  0  0  0  0  0  0
    5.6775    2.0192    0.0000 C   0  0  0  0  0  0  0  0  0  0  0  0
    6.3920    1.6067    0.0000 C   0  0  0  0  0  0  0  0  0  0  0  0
    6.2205    0.7997    0.0000 C   0  0  1  0  0  0  0  0  0  0  0  0
    6.7725    0.1866    0.0000 O   0  0  0  0  0  0  0  0  0  0  0  0
    5.4000    0.7135    0.0000 C   0  0  0  0  0  0  0  0  0  0  0  0
    2.8985    1.1971    0.0000 N   0  0  0  0  0  0  0  0  0  0  0  0
    2.3464    0.5840    0.0000 C   0  0  0  0  0  0  0  0  0  0  0  0
    2.6014   -0.2006    0.0000 C   0  0  0  0  0  0  0  0  0  0  0  0
    1.9339   -0.6855    0.0000 O   0  0  0  0  0  0  0  0  0  0  0  0
    1.2665   -0.2006    0.0000 C   0  0  0  0  0  0  0  0  0  0  0  0
    0.4595   -0.3721    0.0000 C   0  0  0  0  0  0  0  0  0  0  0  0
   -0.0925    0.2410    0.0000 C   0  0  0  0  0  0  0  0  0  0  0  0
    0.1624    1.0256    0.0000 C   0  0  0  0  0  0  0  0  0  0  0  0
   -0.3896    1.6387    0.0000 Br  0  0  0  0  0  0  0  0  0  0  0  0
    0.9694    1.1971    0.0000 C   0  0  0  0  0  0  0  0  0  0  0  0
    1.5214    0.5840    0.0000 C   0  0  0  0  0  0  0  0  0  0  0  0
  1  2  2  0  0  0  0
  2  3  4  0  0  0  0
  3  4  4  0  0  0  0
  4  5  1  0  0  0  0
  5  6  1  0  0  0  0
  6  7  1  0  0  0  0
  7  8  1  0  0  0  0
  9  8  1  0  0  0  0
  9 10  1  1  0  0  0
  9 11  1  0  0  0  0
  6 11  1  0  0  0  0
  4 12  4  0  0  0  0
 12 13  4  0  0  0  0
 13 14  4  0  0  0  0
  2 14  4  0  0  0  0
 14 15  4  0  0  0  0
 15 16  4  0  0  0  0
 16 17  4  0  0  0  0
 17 18  4  0  0  0  0
 18 19  4  0  0  0  0
 19 20  1  0  0  0  0
 19 21  4  0  0  0  0
 21 22  4  0  0  0  0
 16 22  4  0  0  0  0
 13 22  4  0  0  0  0
M  STY  1   1 DAT
M  SAL   1  1   3
M  SDT   1 MRV_IMPLICIT_H                                        
M  SDD   1     0.0000    0.0000    DR    ALL  0       0  
M  SED   1 IMPL_H1
M  END
>  <CdId>
590

>  <Mol Weight>
364.199

>  <Formula>
C15H14BrN3O3

>  <Molecule ChEMBL ID>
CHEMBL2030386

>  <Molecule Max Phase>
None

>  <Molecular Weight>
364.2

>  <#RO5 Violations>
0

>  <AlogP>
2

>  <Compound Key>
6l

>  <Standard Type>
IC50

>  <Standard Relation>
'>'

>  <Standard Value>
20000.0

>  <Standard Units>
nM

$$$$

  Mrv2114 03112311372D          

 18 18  0  0  0  0            999 V2000
    0.7145    2.0625    0.0000 C   0  0  0  0  0  0  0  0  0  0  0  0
    0.7145    1.2375    0.0000 C   0  0  0  0  0  0  0  0  0  0  0  0
    1.4289    0.8250    0.0000 C   0  0  0  0  0  0  0  0  0  0  0  0
    1.4289   -0.0000    0.0000 C   0  0  0  0  0  0  0  0  0  0  0  0
    0.7145   -0.4125    0.0000 C   0  0  0  0  0  0  0  0  0  0  0  0
    0.7145   -1.2375    0.0000 C   0  0  0  0  0  0  0  0  0  0  0  0
    0.0000    0.0000    0.0000 C   0  0  0  0  0  0  0  0  0  0  0  0
   -0.7145   -0.4125    0.0000 O   0  0  0  0  0  0  0  0  0  0  0  0
   -0.7145   -1.2375    0.0000 C   0  0  0  0  0  0  0  0  0  0  0  0
   -1.4289   -1.6500    0.0000 C   0  0  0  0  0  0  0  0  0  0  0  0
   -1.4289   -2.4750    0.0000 C   0  0  0  0  0  0  0  0  0  0  0  0
   -2.1434   -2.8875    0.0000 C   0  0  0  0  0  0  0  0  0  0  0  0
   -2.5559   -2.1730    0.0000 C   0  0  0  0  0  0  0  0  0  0  0  0
   -1.7309   -3.6020    0.0000 C   0  0  0  0  0  0  0  0  0  0  0  0
   -2.8579   -3.3000    0.0000 C   0  0  0  0  0  0  0  0  0  0  0  0
   -2.8579   -4.1250    0.0000 O   0  0  0  0  0  0  0  0  0  0  0  0
   -3.5724   -2.8875    0.0000 O   0  0  0  0  0  0  0  0  0  0  0  0
    0.0000    0.8250    0.0000 C   0  0  0  0  0  0  0  0  0  0  0  0
  1  2  1  0  0  0  0
  2  3  4  0  0  0  0
  3  4  4  0  0  0  0
  4  5  4  0  0  0  0
  5  6  1  0  0  0  0
  5  7  4  0  0  0  0
  7  8  1  0  0  0  0
  8  9  1  0  0  0  0
  9 10  1  0  0  0  0
 10 11  1  0  0  0  0
 11 12  1  0  0  0  0
 12 13  1  0  0  0  0
 12 14  1  0  0  0  0
 12 15  1  0  0  0  0
 15 16  2  0  0  0  0
 15 17  1  0  0  0  0
  7 18  4  0  0  0  0
  2 18  4  0  0  0  0
M  END
>  <CdId>
591

>  <Mol Weight>
250.338

>  <Formula>
C15H22O3

>  <Molecule ChEMBL ID>
CHEMBL457

>  <Molecule Name>
GEMFIBROZIL

>  <Molecule Max Phase>
4

>  <Molecular Weight>
250.34

>  <#RO5 Violations>
0

>  <AlogP>
3.57

>  <Compound Key>
Gemfibrozil

>  <Standard Type>
IC50

>  <Standard Relation>
'='

>  <Standard Value>
95000.0

>  <Standard Units>
nM

$$$$

  Mrv2114 03112311372D          

 25 28  0  0  0  0            999 V2000
    4.7812    1.9354    0.0000 C   0  0  0  0  0  0  0  0  0  0  0  0
    4.0668    2.3479    0.0000 O   0  0  0  0  0  0  0  0  0  0  0  0
    3.3523    1.9354    0.0000 C   0  0  0  0  0  0  0  0  0  0  0  0
    3.3523    1.1104    0.0000 C   0  0  0  0  0  0  0  0  0  0  0  0
    2.6378    0.6979    0.0000 C   0  0  0  0  0  0  0  0  0  0  0  0
    1.9233    1.1104    0.0000 C   0  0  0  0  0  0  0  0  0  0  0  0
    1.1387    0.8555    0.0000 N   0  0  0  0  0  0  0  0  0  0  0  0
    0.6538    1.5229    0.0000 C   0  0  0  0  0  0  0  0  0  0  0  0
   -0.1712    1.5229    0.0000 S   0  0  0  0  0  0  0  0  0  0  0  0
   -0.5837    2.2374    0.0000 C   0  0  0  0  0  0  0  0  0  0  0  0
   -1.4087    2.2374    0.0000 C   0  0  0  0  0  0  0  0  0  0  0  0
   -1.8212    1.5229    0.0000 C   0  0  0  0  0  0  0  0  0  0  0  0
   -2.6462    1.5229    0.0000 C   0  0  0  0  0  0  0  0  0  0  0  0
   -3.0587    2.2374    0.0000 C   0  0  0  0  0  0  0  0  0  0  0  0
   -2.6462    2.9519    0.0000 C   0  0  0  0  0  0  0  0  0  0  0  0
   -3.0587    3.6664    0.0000 C   0  0  0  0  0  0  0  0  0  0  0  0
   -3.8837    3.6664    0.0000 C   0  0  0  0  0  0  0  0  0  0  0  0
   -4.2962    4.3808    0.0000 C   0  0  0  0  0  0  0  0  0  0  0  0
   -3.8837    5.0953    0.0000 C   0  0  0  0  0  0  0  0  0  0  0  0
   -3.0587    5.0953    0.0000 C   0  0  0  0  0  0  0  0  0  0  0  0
   -2.6462    4.3808    0.0000 C   0  0  0  0  0  0  0  0  0  0  0  0
   -1.8212    2.9519    0.0000 C   0  0  0  0  0  0  0  0  0  0  0  0
    1.1387    2.1904    0.0000 N   0  0  0  0  0  0  0  0  0  0  0  0
    1.9233    1.9354    0.0000 C   0  0  0  0  0  0  0  0  0  0  0  0
    2.6378    2.3479    0.0000 C   0  0  0  0  0  0  0  0  0  0  0  0
  1  2  1  0  0  0  0
  2  3  1  0  0  0  0
  3  4  4  0  0  0  0
  4  5  4  0  0  0  0
  5  6  4  0  0  0  0
  6  7  4  0  0  0  0
  7  8  4  0  0  0  0
  8  9  1  0  0  0  0
  9 10  1  0  0  0  0
 10 11  1  0  0  0  0
 11 12  4  0  0  0  0
 12 13  4  0  0  0  0
 13 14  4  0  0  0  0
 14 15  4  0  0  0  0
 15 16  1  0  0  0  0
 16 17  4  0  0  0  0
 17 18  4  0  0  0  0
 18 19  4  0  0  0  0
 19 20  4  0  0  0  0
 20 21  4  0  0  0  0
 16 21  4  0  0  0  0
 15 22  4  0  0  0  0
 11 22  4  0  0  0  0
  8 23  4  0  0  0  0
 23 24  4  0  0  0  0
  6 24  4  0  0  0  0
 24 25  4  0  0  0  0
  3 25  4  0  0  0  0
M  STY  1   1 DAT
M  SAL   1  1   7
M  SDT   1 MRV_IMPLICIT_H                                        
M  SDD   1     0.0000    0.0000    DR    ALL  0       0  
M  SED   1 IMPL_H1
M  END
>  <CdId>
592

>  <Mol Weight>
346.45

>  <Formula>
C21H18N2OS

>  <Molecule ChEMBL ID>
CHEMBL2018923

>  <Molecule Max Phase>
None

>  <Molecular Weight>
346.46

>  <#RO5 Violations>
1

>  <AlogP>
5.53

>  <Compound Key>
22

>  <Standard Type>
IC50

>  <Standard Relation>
'='

>  <Standard Value>
250.0

>  <Standard Units>
nM

$$$$

  Mrv2114 03112311372D          

 35 36  0  0  0  0            999 V2000
    2.4475    1.6630    0.0000 C   0  0  0  0  0  0  0  0  0  0  0  0
    2.4475    0.8380    0.0000 O   0  0  0  0  0  0  0  0  0  0  0  0
    1.7330    0.4255    0.0000 C   0  0  0  0  0  0  0  0  0  0  0  0
    1.7330   -0.3995    0.0000 C   0  0  0  0  0  0  0  0  0  0  0  0
    1.0185   -0.8120    0.0000 C   0  0  0  0  0  0  0  0  0  0  0  0
    0.3041   -0.3995    0.0000 C   0  0  0  0  0  0  0  0  0  0  0  0
    0.3041    0.4255    0.0000 C   0  0  0  0  0  0  0  0  0  0  0  0
    1.0185    0.8380    0.0000 C   0  0  0  0  0  0  0  0  0  0  0  0
   -0.4806    0.6805    0.0000 C   0  0  0  0  0  0  0  0  0  0  0  0
   -0.7355    1.4651    0.0000 C   0  0  0  0  0  0  0  0  0  0  0  0
   -0.1835    2.0782    0.0000 N   0  0  0  0  0  0  0  0  0  0  0  0
   -0.4384    2.8628    0.0000 C   0  0  0  0  0  0  0  0  0  0  0  0
    0.1136    3.4759    0.0000 C   0  0  0  0  0  0  0  0  0  0  0  0
    0.9206    3.3044    0.0000 N   0  0  0  0  0  0  0  0  0  0  0  0
    1.4726    3.9175    0.0000 C   0  0  0  0  0  0  0  0  0  0  0  0
    1.1755    2.5198    0.0000 C   0  0  0  0  0  0  0  0  0  0  0  0
    0.6235    1.9067    0.0000 C   0  0  0  0  0  0  0  0  0  0  0  0
   -0.9655    0.0130    0.0000 C   0  0  0  0  0  0  0  0  0  0  0  0
   -0.4806   -0.6544    0.0000 N   0  0  0  0  0  0  0  0  0  0  0  0
   -0.7355   -1.4390    0.0000 S   0  0  0  0  0  0  0  0  0  0  0  0
   -1.5201   -1.1841    0.0000 O   0  0  0  0  0  0  0  0  0  0  0  0
    0.0491   -1.6940    0.0000 O   0  0  0  0  0  0  0  0  0  0  0  0
   -0.9904   -2.2236    0.0000 C   0  0  0  0  0  0  0  0  0  0  0  0
   -0.4384   -2.8367    0.0000 C   0  0  0  0  0  0  0  0  0  0  0  0
   -0.6933   -3.6214    0.0000 C   0  0  0  0  0  0  0  0  0  0  0  0
   -1.5003   -3.7929    0.0000 C   0  0  0  0  0  0  0  0  0  0  0  0
   -2.0523   -3.1798    0.0000 C   0  0  0  0  0  0  0  0  0  0  0  0
   -1.7974   -2.3952    0.0000 C   0  0  0  0  0  0  0  0  0  0  0  0
   -2.3494   -1.7821    0.0000 Br  0  0  0  0  0  0  0  0  0  0  0  0
    5.1582   -0.8250    0.0000 C   0  0  0  0  0  0  0  0  0  0  0  0
    5.1582    0.0000    0.0000 S   0  0  0  0  0  0  0  0  0  0  0  0
    5.1582    0.8250    0.0000 O   0  0  0  0  0  0  0  0  0  0  0  0
    5.9832   -0.0000    0.0000 O   0  0  0  0  0  0  0  0  0  0  0  0
    4.3332    0.0000    0.0000 O   0  0  0  0  0  0  0  0  0  0  0  0
    0.0000   -5.4429    0.0000 O   0  0  0  0  0  0  0  0  0  0  0  0
  1  2  1  0  0  0  0
  2  3  1  0  0  0  0
  3  4  4  0  0  0  0
  4  5  4  0  0  0  0
  5  6  4  0  0  0  0
  6  7  4  0  0  0  0
  7  8  4  0  0  0  0
  3  8  4  0  0  0  0
  7  9  4  0  0  0  0
  9 10  1  0  0  0  0
 10 11  1  0  0  0  0
 11 12  1  0  0  0  0
 12 13  1  0  0  0  0
 13 14  1  0  0  0  0
 14 15  1  0  0  0  0
 14 16  1  0  0  0  0
 16 17  1  0  0  0  0
 11 17  1  0  0  0  0
  9 18  4  0  0  0  0
 18 19  4  0  0  0  0
  6 19  4  0  0  0  0
 19 20  1  0  0  0  0
 20 21  2  0  0  0  0
 20 22  2  0  0  0  0
 20 23  1  0  0  0  0
 23 24  4  0  0  0  0
 24 25  4  0  0  0  0
 25 26  4  0  0  0  0
 26 27  4  0  0  0  0
 27 28  4  0  0  0  0
 23 28  4  0  0  0  0
 28 29  1  0  0  0  0
 30 31  1  0  0  0  0
 31 32  2  0  0  0  0
 31 33  2  0  0  0  0
 31 34  1  0  0  0  0
M  END
>  <CdId>
593

>  <Mol Weight>
592.52

>  <Formula>
C22H30BrN3O7S2

>  <Molecule ChEMBL ID>
CHEMBL4082473

>  <Molecule Max Phase>
None

>  <Molecular Weight>
592.53

>  <#RO5 Violations>
0

>  <AlogP>
3.4

>  <Compound Key>
5al

>  <Standard Type>
IC50

>  <Standard Relation>
'>'

>  <Standard Value>
10000.0

>  <Standard Units>
nM

$$$$

  Mrv2114 03112311372D          

 27 29  0  0  0  0            999 V2000
    2.8579    0.0000    0.0000 C   0  0  0  0  0  0  0  0  0  0  0  0
    3.5724    0.4125    0.0000 C   0  0  0  0  0  0  0  0  0  0  0  0
    4.2868    0.0000    0.0000 C   0  0  0  0  0  0  0  0  0  0  0  0
    5.0013    0.4125    0.0000 C   0  0  0  0  0  0  0  0  0  0  0  0
    5.7158    0.0000    0.0000 N   0  0  0  0  0  0  0  0  0  0  0  0
    6.4302    0.4125    0.0000 C   0  0  0  0  0  0  0  0  0  0  0  0
    6.4302    1.2375    0.0000 N   0  0  0  0  0  0  0  0  0  0  0  0
    7.1447    1.6500    0.0000 C   0  0  0  0  0  0  0  0  0  0  0  0
    7.1447    2.4750    0.0000 N   0  0  0  0  0  0  0  0  0  0  0  0
    7.8592    1.2375    0.0000 N   0  0  0  0  0  0  0  0  0  0  0  0
    7.8592    0.4125    0.0000 C   0  0  0  0  0  0  0  0  0  0  0  0
    8.5737    0.0000    0.0000 C   0  0  0  0  0  0  0  0  0  0  0  0
    8.5737   -0.8250    0.0000 C   0  0  0  0  0  0  0  0  0  0  0  0
    7.8592   -1.2375    0.0000 C   0  0  0  0  0  0  0  0  0  0  0  0
    7.1447   -0.8250    0.0000 C   0  0  0  0  0  0  0  0  0  0  0  0
    6.4302   -1.2375    0.0000 C   0  0  0  0  0  0  0  0  0  0  0  0
    5.7158   -0.8250    0.0000 O   0  0  0  0  0  0  0  0  0  0  0  0
    6.4302   -2.0625    0.0000 N   0  0  0  0  0  0  0  0  0  0  0  0
    7.1447   -2.4750    0.0000 C   0  0  0  0  0  0  0  0  0  0  0  0
    5.7158   -2.4750    0.0000 C   0  0  0  0  0  0  0  0  0  0  0  0
    5.7158   -3.3000    0.0000 C   0  0  0  0  0  0  0  0  0  0  0  0
    6.4302   -3.7125    0.0000 C   0  0  0  0  0  0  0  0  0  0  0  0
    6.4302   -4.5375    0.0000 C   0  0  0  0  0  0  0  0  0  0  0  0
    5.7158   -4.9500    0.0000 C   0  0  0  0  0  0  0  0  0  0  0  0
    5.0013   -4.5375    0.0000 C   0  0  0  0  0  0  0  0  0  0  0  0
    5.0013   -3.7125    0.0000 C   0  0  0  0  0  0  0  0  0  0  0  0
    7.1447    0.0000    0.0000 C   0  0  0  0  0  0  0  0  0  0  0  0
  1  2  1  0  0  0  0
  2  3  1  0  0  0  0
  3  4  1  0  0  0  0
  4  5  1  0  0  0  0
  5  6  1  0  0  0  0
  6  7  4  0  0  0  0
  7  8  4  0  0  0  0
  8  9  1  0  0  0  0
  8 10  4  0  0  0  0
 10 11  4  0  0  0  0
 11 12  4  0  0  0  0
 12 13  4  0  0  0  0
 13 14  4  0  0  0  0
 14 15  4  0  0  0  0
 15 16  1  0  0  0  0
 16 17  2  0  0  0  0
 16 18  1  0  0  0  0
 18 19  1  0  0  0  0
 18 20  1  0  0  0  0
 20 21  1  0  0  0  0
 21 22  4  0  0  0  0
 22 23  4  0  0  0  0
 23 24  4  0  0  0  0
 24 25  4  0  0  0  0
 25 26  4  0  0  0  0
 21 26  4  0  0  0  0
 15 27  4  0  0  0  0
  6 27  4  0  0  0  0
 11 27  4  0  0  0  0
M  END
>  <CdId>
594

>  <Mol Weight>
363.465

>  <Formula>
C21H25N5O

>  <Molecule ChEMBL ID>
CHEMBL4218623

>  <Molecule Max Phase>
None

>  <Molecular Weight>
363.47

>  <#RO5 Violations>
0

>  <AlogP>
3.7

>  <Compound Key>
46

>  <Standard Type>
IC50

>  <Standard Relation>
'>'

>  <Standard Value>
10000.0

>  <Standard Units>
nM

$$$$

  Mrv2114 03112311372D          

 29 32  0  0  0  0            999 V2000
   -4.2868    0.8250    0.0000 C   0  0  0  0  0  0  0  0  0  0  0  0
   -3.5724    0.4125    0.0000 C   0  0  0  0  0  0  0  0  0  0  0  0
   -2.8579    0.8250    0.0000 C   0  0  0  0  0  0  0  0  0  0  0  0
   -2.1434    0.4125    0.0000 C   0  0  0  0  0  0  0  0  0  0  0  0
   -1.4289    0.8250    0.0000 C   0  0  0  0  0  0  0  0  0  0  0  0
   -1.4289    1.6500    0.0000 O   0  0  0  0  0  0  0  0  0  0  0  0
   -0.7145    0.4125    0.0000 N   0  0  0  0  0  0  0  0  0  0  0  0
    0.0000    0.8250    0.0000 C   0  0  0  0  0  0  0  0  0  0  0  0
    0.0000    1.6500    0.0000 C   0  0  0  0  0  0  0  0  0  0  0  0
    0.7145    2.0625    0.0000 C   0  0  0  0  0  0  0  0  0  0  0  0
    0.7145    2.8875    0.0000 C   0  0  0  0  0  0  0  0  0  0  0  0
    0.0000    3.3000    0.0000 C   0  0  0  0  0  0  0  0  0  0  0  0
   -0.7145    2.8875    0.0000 C   0  0  0  0  0  0  0  0  0  0  0  0
   -0.7145    2.0625    0.0000 C   0  0  0  0  0  0  0  0  0  0  0  0
   -1.4289    3.3000    0.0000 O   0  0  0  0  0  0  0  0  0  0  0  0
   -1.4289    4.1250    0.0000 C   0  0  0  0  0  0  0  0  0  0  0  0
   -0.7145    4.5375    0.0000 C   0  0  0  0  0  0  0  0  0  0  0  0
   -0.0000    4.1250    0.0000 O   0  0  0  0  0  0  0  0  0  0  0  0
   -0.7145   -0.4125    0.0000 C   0  0  0  0  0  0  0  0  0  0  0  0
    0.0000   -0.8250    0.0000 C   0  0  0  0  0  0  0  0  0  0  0  0
    0.0000   -1.6500    0.0000 C   0  0  0  0  0  0  0  0  0  0  0  0
   -0.7145   -2.0625    0.0000 C   0  0  0  0  0  0  0  0  0  0  0  0
   -1.4289   -1.6500    0.0000 C   0  0  0  0  0  0  0  0  0  0  0  0
   -2.1434   -2.0625    0.0000 C   0  0  0  0  0  0  0  0  0  0  0  0
   -2.2296   -2.8830    0.0000 N   0  0  0  0  0  0  0  0  0  0  0  0
   -3.0366   -3.0545    0.0000 N   0  0  0  0  0  0  0  0  0  0  0  0
   -3.4491   -2.3400    0.0000 N   0  0  0  0  0  0  0  0  0  0  0  0
   -2.8971   -1.7269    0.0000 N   0  0  0  0  0  0  0  0  0  0  0  0
   -1.4289   -0.8250    0.0000 C   0  0  0  0  0  0  0  0  0  0  0  0
  1  2  1  0  0  0  0
  2  3  1  0  0  0  0
  3  4  1  0  0  0  0
  4  5  1  0  0  0  0
  5  6  2  0  0  0  0
  5  7  1  0  0  0  0
  7  8  1  0  0  0  0
  8  9  1  0  0  0  0
  9 10  4  0  0  0  0
 10 11  4  0  0  0  0
 11 12  4  0  0  0  0
 12 13  4  0  0  0  0
 13 14  4  0  0  0  0
  9 14  4  0  0  0  0
 13 15  1  0  0  0  0
 15 16  1  0  0  0  0
 16 17  1  0  0  0  0
 17 18  1  0  0  0  0
 12 18  1  0  0  0  0
  7 19  1  0  0  0  0
 19 20  4  0  0  0  0
 20 21  4  0  0  0  0
 21 22  4  0  0  0  0
 22 23  4  0  0  0  0
 23 24  1  0  0  0  0
 24 25  4  0  0  0  0
 25 26  4  0  0  0  0
 26 27  4  0  0  0  0
 27 28  4  0  0  0  0
 24 28  4  0  0  0  0
 23 29  4  0  0  0  0
 19 29  4  0  0  0  0
M  STY  1   1 DAT
M  SAL   1  1  28
M  SDT   1 MRV_IMPLICIT_H                                        
M  SDD   1     0.0000    0.0000    DR    ALL  0       0  
M  SED   1 IMPL_H1
M  END
>  <CdId>
595

>  <Mol Weight>
393.447

>  <Formula>
C21H23N5O3

>  <Molecule ChEMBL ID>
CHEMBL2036203

>  <Molecule Max Phase>
None

>  <Molecular Weight>
393.45

>  <#RO5 Violations>
0

>  <AlogP>
3.36

>  <Compound Key>
39

>  <Standard Type>
IC50

>  <Standard Relation>
'='

>  <Standard Value>
570.0

>  <Standard Units>
nM

$$$$

  Mrv2114 03112311372D          

 33 36  0  0  0  0            999 V2000
   -1.4289   -6.6000    0.0000 C   0  0  0  0  0  0  0  0  0  0  0  0
   -0.7145   -6.1875    0.0000 C   0  0  0  0  0  0  0  0  0  0  0  0
   -0.7145   -5.3625    0.0000 N   0  0  0  0  0  0  0  0  0  0  0  0
   -1.4289   -4.9500    0.0000 C   0  0  0  0  0  0  0  0  0  0  0  0
   -2.1434   -5.3625    0.0000 C   0  0  0  0  0  0  0  0  0  0  0  0
    0.0000   -4.9500    0.0000 C   0  0  0  0  0  0  0  0  0  0  0  0
    0.0000   -4.1250    0.0000 C   0  0  0  0  0  0  0  0  0  0  0  0
   -0.7145   -3.7125    0.0000 C   0  0  0  0  0  0  0  0  0  0  0  0
   -0.7145   -2.8875    0.0000 C   0  0  0  0  0  0  0  0  0  0  0  0
    0.0000   -2.4750    0.0000 C   0  0  0  0  0  0  0  0  0  0  0  0
    0.7145   -2.8875    0.0000 C   0  0  0  0  0  0  0  0  0  0  0  0
    1.4289   -2.4750    0.0000 N   0  0  0  0  0  0  0  0  0  0  0  0
    1.4289   -1.6500    0.0000 C   0  0  0  0  0  0  0  0  0  0  0  0
    0.7145   -1.2375    0.0000 C   0  0  0  0  0  0  0  0  0  0  0  0
    0.7145   -0.4125    0.0000 C   0  0  0  0  0  0  0  0  0  0  0  0
    1.4289    0.0000    0.0000 N   0  0  0  0  0  0  0  0  0  0  0  0
    2.1434   -0.4125    0.0000 C   0  0  0  0  0  0  0  0  0  0  0  0
    2.8579    0.0000    0.0000 C   0  0  0  0  0  0  0  0  0  0  0  0
    3.5724   -0.4125    0.0000 C   0  0  0  0  0  0  0  0  0  0  0  0
    4.2868   -0.0000    0.0000 Cl  0  0  0  0  0  0  0  0  0  0  0  0
    3.5724   -1.2375    0.0000 C   0  0  0  0  0  0  0  0  0  0  0  0
    2.8579   -1.6500    0.0000 C   0  0  0  0  0  0  0  0  0  0  0  0
    2.1434   -1.2375    0.0000 C   0  0  0  0  0  0  0  0  0  0  0  0
    0.7145   -3.7125    0.0000 C   0  0  0  0  0  0  0  0  0  0  0  0
    0.7145   -5.3625    0.0000 C   0  0  0  0  0  0  0  0  0  0  0  0
    1.4681   -5.0269    0.0000 N   0  0  0  0  0  0  0  0  0  0  0  0
    2.0202   -5.6400    0.0000 N   0  0  0  0  0  0  0  0  0  0  0  0
    1.6077   -6.3545    0.0000 N   0  0  0  0  0  0  0  0  0  0  0  0
    0.8007   -6.1830    0.0000 N   0  0  0  0  0  0  0  0  0  0  0  0
    0.1876   -6.7350    0.0000 C   0  0  0  0  0  0  0  0  0  0  0  0
   -0.4255   -7.2870    0.0000 C   0  0  0  0  0  0  0  0  0  0  0  0
   -0.3644   -6.1219    0.0000 C   0  0  0  0  0  0  0  0  0  0  0  0
    0.7396   -7.3481    0.0000 C   0  0  0  0  0  0  0  0  0  0  0  0
  1  2  1  0  0  0  0
  2  3  1  0  0  0  0
  3  4  1  0  0  0  0
  4  5  1  0  0  0  0
  3  6  1  0  0  0  0
  6  7  1  0  0  0  0
  7  8  4  0  0  0  0
  8  9  4  0  0  0  0
  9 10  4  0  0  0  0
 10 11  4  0  0  0  0
 11 12  1  0  0  0  0
 12 13  1  0  0  0  0
 13 14  4  0  0  0  0
 14 15  4  0  0  0  0
 15 16  4  0  0  0  0
 16 17  4  0  0  0  0
 17 18  4  0  0  0  0
 18 19  4  0  0  0  0
 19 20  1  0  0  0  0
 19 21  4  0  0  0  0
 21 22  4  0  0  0  0
 22 23  4  0  0  0  0
 13 23  4  0  0  0  0
 17 23  4  0  0  0  0
 11 24  4  0  0  0  0
  7 24  4  0  0  0  0
  6 25  1  0  0  0  0
 25 26  4  0  0  0  0
 26 27  4  0  0  0  0
 27 28  4  0  0  0  0
 28 29  4  0  0  0  0
 25 29  4  0  0  0  0
 29 30  1  0  0  0  0
 30 31  1  0  0  0  0
 30 32  1  0  0  0  0
 30 33  1  0  0  0  0
M  END
>  <CdId>
596

>  <Mol Weight>
464.01

>  <Formula>
C25H30ClN7

>  <Molecule ChEMBL ID>
CHEMBL2413881

>  <Molecule Max Phase>
None

>  <Molecular Weight>
464.02

>  <#RO5 Violations>
1

>  <AlogP>
5.8

>  <Compound Key>
6b

>  <Standard Type>
IC50

>  <Standard Relation>
'='

>  <Standard Value>
220.0

>  <Standard Units>
nM

$$$$

  Mrv2114 03112311372D          

 30 32  0  0  0  0            999 V2000
    5.0013   -5.3625    0.0000 C   0  0  0  0  0  0  0  0  0  0  0  0
    5.0013   -6.1875    0.0000 C   0  0  0  0  0  0  0  0  0  0  0  0
    5.7158   -6.6000    0.0000 C   0  0  0  0  0  0  0  0  0  0  0  0
    5.7158   -7.4250    0.0000 C   0  0  0  0  0  0  0  0  0  0  0  0
    6.4302   -7.8375    0.0000 C   0  0  0  0  0  0  0  0  0  0  0  0
    6.4302   -8.6625    0.0000 N   0  0  0  0  0  0  0  0  0  0  0  0
    7.1447   -9.0750    0.0000 C   0  0  0  0  0  0  0  0  0  0  0  0
    7.8592   -8.6625    0.0000 O   0  0  0  0  0  0  0  0  0  0  0  0
    7.1447   -9.9000    0.0000 C   0  0  0  0  0  0  0  0  0  0  0  0
    7.8592  -10.3125    0.0000 C   0  0  0  0  0  0  0  0  0  0  0  0
    7.8592  -11.1375    0.0000 C   0  0  0  0  0  0  0  0  0  0  0  0
    8.5737  -11.5500    0.0000 C   0  0  0  0  0  0  0  0  0  0  0  0
    9.2881  -11.1375    0.0000 O   0  0  0  0  0  0  0  0  0  0  0  0
    8.5737  -12.3750    0.0000 N   0  0  0  0  0  0  0  0  0  0  0  0
    9.2881  -12.7875    0.0000 C   0  0  0  0  0  0  0  0  0  0  0  0
    9.2881  -13.6125    0.0000 C   0  0  0  0  0  0  0  0  0  0  0  0
   10.0026  -14.0250    0.0000 C   0  0  0  0  0  0  0  0  0  0  0  0
   10.0026  -14.8500    0.0000 C   0  0  0  0  0  0  0  0  0  0  0  0
    9.2881  -15.2625    0.0000 C   0  0  0  0  0  0  0  0  0  0  0  0
    9.2881  -16.0875    0.0000 F   0  0  0  0  0  0  0  0  0  0  0  0
    8.5737  -14.8500    0.0000 C   0  0  0  0  0  0  0  0  0  0  0  0
    7.8592  -15.2625    0.0000 C   0  0  0  0  0  0  0  0  0  0  0  0
    8.5737  -14.0250    0.0000 C   0  0  0  0  0  0  0  0  0  0  0  0
    7.1447  -11.5500    0.0000 N   0  0  0  0  0  0  0  0  0  0  0  0
    6.4302  -11.1375    0.0000 C   0  0  0  0  0  0  0  0  0  0  0  0
    6.4302  -10.3125    0.0000 N   0  0  0  0  0  0  0  0  0  0  0  0
    5.0013   -7.8375    0.0000 C   0  0  0  0  0  0  0  0  0  0  0  0
    4.2868   -7.4250    0.0000 C   0  0  0  0  0  0  0  0  0  0  0  0
    4.2868   -6.6000    0.0000 C   0  0  0  0  0  0  0  0  0  0  0  0
    3.5724   -6.1875    0.0000 F   0  0  0  0  0  0  0  0  0  0  0  0
  1  2  1  0  0  0  0
  2  3  4  0  0  0  0
  3  4  4  0  0  0  0
  4  5  1  0  0  0  0
  5  6  1  0  0  0  0
  6  7  1  0  0  0  0
  7  8  2  0  0  0  0
  7  9  1  0  0  0  0
  9 10  4  0  0  0  0
 10 11  4  0  0  0  0
 11 12  1  0  0  0  0
 12 13  2  0  0  0  0
 12 14  1  0  0  0  0
 14 15  1  0  0  0  0
 15 16  1  0  0  0  0
 16 17  4  0  0  0  0
 17 18  4  0  0  0  0
 18 19  4  0  0  0  0
 19 20  1  0  0  0  0
 19 21  4  0  0  0  0
 21 22  1  0  0  0  0
 21 23  4  0  0  0  0
 16 23  4  0  0  0  0
 11 24  4  0  0  0  0
 24 25  4  0  0  0  0
 25 26  4  0  0  0  0
  9 26  4  0  0  0  0
  4 27  4  0  0  0  0
 27 28  4  0  0  0  0
 28 29  4  0  0  0  0
  2 29  4  0  0  0  0
 29 30  1  0  0  0  0
M  END
>  <CdId>
597

>  <Mol Weight>
410.425

>  <Formula>
C22H20F2N4O2

>  <Molecule ChEMBL ID>
CHEMBL514794

>  <Molecule Max Phase>
None

>  <Molecular Weight>
410.42

>  <#RO5 Violations>
0

>  <AlogP>
3.23

>  <Compound Key>
4

>  <Standard Type>
IC50

>  <Standard Relation>
'>'

>  <Standard Value>
20000.0

>  <Standard Units>
nM

$$$$

  Mrv2114 03112311372D          

 36 40  0  0  0  0            999 V2000
    5.9609   -8.3337    0.0000 C   0  0  0  0  0  0  0  0  0  0  0  0
    5.1404   -8.4200    0.0000 C   0  0  0  0  0  0  0  0  0  0  0  0
    4.8048   -9.1736    0.0000 O   0  0  0  0  0  0  0  0  0  0  0  0
    4.6555   -7.7525    0.0000 N   0  0  0  0  0  0  0  0  0  0  0  0
    3.8350   -7.8388    0.0000 C   0  0  0  0  0  0  0  0  0  0  0  0
    3.3501   -7.1713    0.0000 C   0  0  0  0  0  0  0  0  0  0  0  0
    3.6856   -6.4177    0.0000 N   0  0  0  0  0  0  0  0  0  0  0  0
    3.2007   -5.7502    0.0000 C   0  0  0  0  0  0  0  0  0  0  0  0
    2.3802   -5.8365    0.0000 C   0  0  0  0  0  0  0  0  0  0  0  0
    1.8953   -5.1690    0.0000 C   0  0  0  0  0  0  0  0  0  0  0  0
    2.2308   -4.4153    0.0000 C   0  0  0  0  0  0  0  0  0  0  0  0
    1.7459   -3.7479    0.0000 O   0  0  0  0  0  0  0  0  0  0  0  0
    2.0815   -2.9942    0.0000 C   0  0  0  0  0  0  0  0  0  0  0  0
    1.5966   -2.3268    0.0000 C   0  0  0  0  0  0  0  0  0  0  0  0
    0.7716   -2.3268    0.0000 C   0  0  0  0  0  0  0  0  0  0  0  0
    0.5166   -1.5422    0.0000 O   0  0  0  0  0  0  0  0  0  0  0  0
    1.1841   -1.0572    0.0000 C   0  0  0  0  0  0  0  0  0  0  0  0
    0.6320   -0.4441    0.0000 C   0  0  0  0  0  0  0  0  0  0  0  0
   -0.1749   -0.6157    0.0000 N   0  0  0  0  0  0  0  0  0  0  0  0
   -0.7880   -0.0636    0.0000 C   0  0  0  0  0  0  0  0  0  0  0  0
   -1.5025   -0.4761    0.0000 C   0  0  0  0  0  0  0  0  0  0  0  0
   -1.3310   -1.2831    0.0000 N   0  0  0  0  0  0  0  0  0  0  0  0
   -0.5105   -1.3694    0.0000 C   0  0  0  0  0  0  0  0  0  0  0  0
    1.7361   -0.4441    0.0000 C   0  0  0  0  0  0  0  0  0  0  0  0
    1.4812    0.3405    0.0000 C   0  0  0  0  0  0  0  0  0  0  0  0
    2.0332    0.9536    0.0000 C   0  0  0  0  0  0  0  0  0  0  0  0
    2.8402    0.7820    0.0000 C   0  0  0  0  0  0  0  0  0  0  0  0
    3.3922    1.3951    0.0000 Cl  0  0  0  0  0  0  0  0  0  0  0  0
    3.0951   -0.0026    0.0000 C   0  0  0  0  0  0  0  0  0  0  0  0
    2.5431   -0.6157    0.0000 C   0  0  0  0  0  0  0  0  0  0  0  0
    2.7980   -1.4003    0.0000 Cl  0  0  0  0  0  0  0  0  0  0  0  0
    1.8515   -1.5422    0.0000 O   0  0  0  0  0  0  0  0  0  0  0  0
    3.0513   -4.3291    0.0000 C   0  0  0  0  0  0  0  0  0  0  0  0
    3.5362   -4.9965    0.0000 C   0  0  0  0  0  0  0  0  0  0  0  0
    4.5061   -6.3314    0.0000 C   0  0  0  0  0  0  0  0  0  0  0  0
    4.9910   -6.9989    0.0000 C   0  0  0  0  0  0  0  0  0  0  0  0
  1  2  1  0  0  0  0
  2  3  2  0  0  0  0
  2  4  1  0  0  0  0
  4  5  1  0  0  0  0
  5  6  1  0  0  0  0
  6  7  1  0  0  0  0
  7  8  1  0  0  0  0
  8  9  4  0  0  0  0
  9 10  4  0  0  0  0
 10 11  4  0  0  0  0
 11 12  1  0  0  0  0
 12 13  1  0  0  0  0
 13 14  1  0  0  0  0
 14 15  1  0  0  0  0
 15 16  1  0  0  0  0
 16 17  1  0  0  0  0
 17 18  1  0  0  0  0
 18 19  1  0  0  0  0
 19 20  4  0  0  0  0
 20 21  4  0  0  0  0
 21 22  4  0  0  0  0
 22 23  4  0  0  0  0
 19 23  4  0  0  0  0
 17 24  1  0  0  0  0
 24 25  4  0  0  0  0
 25 26  4  0  0  0  0
 26 27  4  0  0  0  0
 27 28  1  0  0  0  0
 27 29  4  0  0  0  0
 29 30  4  0  0  0  0
 24 30  4  0  0  0  0
 30 31  1  0  0  0  0
 17 32  1  0  0  0  0
 14 32  1  0  0  0  0
 11 33  4  0  0  0  0
 33 34  4  0  0  0  0
  8 34  4  0  0  0  0
  7 35  1  0  0  0  0
 35 36  1  0  0  0  0
  4 36  1  0  0  0  0
M  END
>  <CdId>
598

>  <Mol Weight>
531.43

>  <Formula>
C26H28Cl2N4O4

>  <Molecule ChEMBL ID>
CHEMBL157101

>  <Molecule Name>
KETOCONAZOLE

>  <Molecule Max Phase>
4

>  <Molecular Weight>
531.44

>  <#RO5 Violations>
1

>  <AlogP>
4.21

>  <Compound Key>
KETOCONAZOLE

>  <Standard Type>
IC50

>  <Standard Relation>
'='

>  <Standard Value>
2450.0

>  <Standard Units>
nM

$$$$

  Mrv2114 03112311372D          

 35 37  0  0  0  0            999 V2000
   -5.7158   -3.3000    0.0000 C   0  0  0  0  0  0  0  0  0  0  0  0
   -5.0013   -2.8875    0.0000 O   0  0  0  0  0  0  0  0  0  0  0  0
   -5.0013   -2.0625    0.0000 C   0  0  0  0  0  0  0  0  0  0  0  0
   -5.7158   -1.6500    0.0000 O   0  0  0  0  0  0  0  0  0  0  0  0
   -4.2868   -1.6500    0.0000 C   0  0  0  0  0  0  0  0  0  0  0  0
   -4.2868   -0.8250    0.0000 C   0  0  0  0  0  0  0  0  0  0  0  0
   -5.0013   -0.4125    0.0000 C   0  0  0  0  0  0  0  0  0  0  0  0
   -3.5724   -0.4125    0.0000 N   0  0  0  0  0  0  0  0  0  0  0  0
   -2.8579   -0.8250    0.0000 C   0  0  0  0  0  0  0  0  0  0  0  0
   -2.1434   -0.4125    0.0000 C   0  0  0  0  0  0  0  0  0  0  0  0
   -2.8579   -1.6500    0.0000 C   0  0  0  0  0  0  0  0  0  0  0  0
   -2.1434   -2.0625    0.0000 C   0  0  0  0  0  0  0  0  0  0  0  0
   -2.1434   -2.8875    0.0000 O   0  0  0  0  0  0  0  0  0  0  0  0
   -1.4289   -1.6500    0.0000 O   0  0  0  0  0  0  0  0  0  0  0  0
   -0.7145   -2.0625    0.0000 C   0  0  0  0  0  0  0  0  0  0  0  0
    0.0000   -1.6500    0.0000 C   0  0  0  0  0  0  0  0  0  0  0  0
    0.7145   -2.0625    0.0000 N   0  0  0  0  0  0  0  0  0  0  0  0
    0.7145   -2.8875    0.0000 C   0  0  0  0  0  0  0  0  0  0  0  0
    1.4289   -1.6500    0.0000 C   0  0  0  0  0  0  0  0  0  0  0  0
    2.1434   -2.0625    0.0000 C   0  0  0  0  0  0  0  0  0  0  0  0
    2.8579   -1.6500    0.0000 C   0  0  0  0  0  0  0  0  0  0  0  0
    3.5724   -2.0625    0.0000 C   0  0  0  0  0  0  0  0  0  0  0  0
    3.5724   -2.8875    0.0000 C   0  0  0  0  0  0  0  0  0  0  0  0
    2.8579   -3.3000    0.0000 C   0  0  0  0  0  0  0  0  0  0  0  0
    2.1434   -2.8875    0.0000 C   0  0  0  0  0  0  0  0  0  0  0  0
   -3.5724   -2.0625    0.0000 C   0  0  0  0  0  0  0  0  0  0  0  0
   -3.5724   -2.8875    0.0000 C   0  0  0  0  0  0  0  0  0  0  0  0
   -2.8579   -3.3000    0.0000 C   0  0  0  0  0  0  0  0  0  0  0  0
   -2.8579   -4.1250    0.0000 C   0  0  0  0  0  0  0  0  0  0  0  0
   -3.5724   -4.5375    0.0000 C   0  0  0  0  0  0  0  0  0  0  0  0
   -4.2868   -4.1250    0.0000 C   0  0  0  0  0  0  0  0  0  0  0  0
   -5.0013   -4.5375    0.0000 N   0  3  0  0  0  0  0  0  0  0  0  0
   -5.0013   -5.3625    0.0000 O   0  0  0  0  0  0  0  0  0  0  0  0
   -5.7158   -4.1250    0.0000 O   0  5  0  0  0  0  0  0  0  0  0  0
   -4.2868   -3.3000    0.0000 C   0  0  0  0  0  0  0  0  0  0  0  0
  1  2  1  0  0  0  0
  2  3  1  0  0  0  0
  3  4  2  0  0  0  0
  3  5  1  0  0  0  0
  5  6  2  0  0  0  0
  6  7  1  0  0  0  0
  6  8  1  0  0  0  0
  8  9  1  0  0  0  0
  9 10  1  0  0  0  0
  9 11  2  0  0  0  0
 11 12  1  0  0  0  0
 12 13  2  0  0  0  0
 12 14  1  0  0  0  0
 14 15  1  0  0  0  0
 15 16  1  0  0  0  0
 16 17  1  0  0  0  0
 17 18  1  0  0  0  0
 17 19  1  0  0  0  0
 19 20  1  0  0  0  0
 20 21  4  0  0  0  0
 21 22  4  0  0  0  0
 22 23  4  0  0  0  0
 23 24  4  0  0  0  0
 24 25  4  0  0  0  0
 20 25  4  0  0  0  0
 11 26  1  0  0  0  0
  5 26  1  0  0  0  0
 26 27  1  0  0  0  0
 27 28  4  0  0  0  0
 28 29  4  0  0  0  0
 29 30  4  0  0  0  0
 30 31  4  0  0  0  0
 31 32  1  0  0  0  0
 32 33  2  0  0  0  0
 32 34  1  0  0  0  0
 31 35  4  0  0  0  0
 27 35  4  0  0  0  0
M  CHG  2  32   1  34  -1
M  END
>  <CdId>
599

>  <Mol Weight>
479.533

>  <Formula>
C26H29N3O6

>  <Molecule ChEMBL ID>
CHEMBL1484

>  <Molecule Name>
NICARDIPINE

>  <Molecule Max Phase>
4

>  <Molecular Weight>
479.53

>  <#RO5 Violations>
0

>  <AlogP>
3.68

>  <Compound Key>
Nicardipine

>  <Standard Type>
IC50

>  <Standard Relation>
'='

>  <Standard Value>
1560.0

>  <Standard Units>
nM

$$$$

  Mrv2114 03112311372D          

 44 47  0  0  0  0            999 V2000
    1.4289    0.8250    0.0000 C   0  0  0  0  0  0  0  0  0  0  0  0
    1.4289    0.0000    0.0000 C   0  0  0  0  0  0  0  0  0  0  0  0
    2.1434   -0.4125    0.0000 N   0  0  0  0  0  0  0  0  0  0  0  0
    2.1434   -1.2375    0.0000 C   0  0  0  0  0  0  0  0  0  0  0  0
    2.8579   -1.6500    0.0000 C   0  0  0  0  0  0  0  0  0  0  0  0
    2.8579   -2.4750    0.0000 C   0  0  0  0  0  0  0  0  0  0  0  0
    3.5724   -2.8875    0.0000 C   0  0  0  0  0  0  0  0  0  0  0  0
    4.2868   -3.3000    0.0000 C   0  0  0  0  0  0  0  0  0  0  0  0
    5.0013   -3.7125    0.0000 C   0  0  0  0  0  0  0  0  0  0  0  0
    5.0013   -4.5375    0.0000 N   0  0  0  0  0  0  0  0  0  0  0  0
    5.7158   -4.9500    0.0000 C   0  0  0  0  0  0  0  0  0  0  0  0
    5.7158   -5.7750    0.0000 C   0  0  0  0  0  0  0  0  0  0  0  0
    5.0013   -6.1875    0.0000 O   0  0  0  0  0  0  0  0  0  0  0  0
    4.2868   -5.7750    0.0000 C   0  0  0  0  0  0  0  0  0  0  0  0
    4.2868   -4.9500    0.0000 C   0  0  0  0  0  0  0  0  0  0  0  0
    2.1434   -2.8875    0.0000 C   0  0  0  0  0  0  0  0  0  0  0  0
    1.4289   -2.4750    0.0000 C   0  0  0  0  0  0  0  0  0  0  0  0
    0.7145   -2.8875    0.0000 C   0  0  0  0  0  0  0  0  0  0  0  0
    0.0000   -2.4750    0.0000 O   0  0  0  0  0  0  0  0  0  0  0  0
    0.7145   -3.7125    0.0000 N   0  0  0  0  0  0  0  0  0  0  0  0
    0.0000   -4.1250    0.0000 C   0  0  0  0  0  0  0  0  0  0  0  0
    0.0000   -4.9500    0.0000 C   0  0  0  0  0  0  0  0  0  0  0  0
    0.7145   -5.3625    0.0000 C   0  0  0  0  0  0  0  0  0  0  0  0
    1.4289   -4.9500    0.0000 C   0  0  0  0  0  0  0  0  0  0  0  0
    0.7145   -6.1875    0.0000 C   0  0  0  0  0  0  0  0  0  0  0  0
    0.0000   -6.6000    0.0000 C   0  0  0  0  0  0  0  0  0  0  0  0
    0.0000   -7.4250    0.0000 C   0  0  0  0  0  0  0  0  0  0  0  0
   -0.7145   -6.1875    0.0000 N   0  0  0  0  0  0  0  0  0  0  0  0
   -0.7145   -5.3625    0.0000 C   0  0  0  0  0  0  0  0  0  0  0  0
   -1.4289   -4.9500    0.0000 O   0  0  0  0  0  0  0  0  0  0  0  0
    1.4289   -1.6500    0.0000 C   0  0  0  0  0  0  0  0  0  0  0  0
    0.7145   -1.2375    0.0000 C   0  0  0  0  0  0  0  0  0  0  0  0
    2.8579    0.0000    0.0000 C   0  0  1  0  0  0  0  0  0  0  0  0
    2.8579    0.8250    0.0000 C   0  0  0  0  0  0  0  0  0  0  0  0
    3.5724    1.2375    0.0000 C   0  0  0  0  0  0  0  0  0  0  0  0
    4.2868    0.8250    0.0000 C   0  0  2  0  0  0  0  0  0  0  0  0
    5.0013    1.2375    0.0000 N   0  0  0  0  0  0  0  0  0  0  0  0
    5.0013    2.0625    0.0000 C   0  0  0  0  0  0  0  0  0  0  0  0
    5.7158    0.8250    0.0000 C   0  0  0  0  0  0  0  0  0  0  0  0
    6.4302    1.2375    0.0000 C   0  0  0  0  0  0  0  0  0  0  0  0
    7.1447    0.8250    0.0000 O   0  0  0  0  0  0  0  0  0  0  0  0
    7.8592    1.2375    0.0000 C   0  0  0  0  0  0  0  0  0  0  0  0
    4.2868    0.0000    0.0000 C   0  0  0  0  0  0  0  0  0  0  0  0
    3.5724   -0.4125    0.0000 C   0  0  0  0  0  0  0  0  0  0  0  0
  1  2  1  0  0  0  0
  2  3  1  0  0  0  0
  3  4  1  0  0  0  0
  4  5  4  0  0  0  0
  5  6  4  0  0  0  0
  6  7  1  0  0  0  0
  7  8  3  0  0  0  0
  8  9  1  0  0  0  0
  9 10  1  0  0  0  0
 10 11  1  0  0  0  0
 11 12  1  0  0  0  0
 12 13  1  0  0  0  0
 13 14  1  0  0  0  0
 14 15  1  0  0  0  0
 10 15  1  0  0  0  0
  6 16  4  0  0  0  0
 16 17  4  0  0  0  0
 17 18  1  0  0  0  0
 18 19  2  0  0  0  0
 18 20  1  0  0  0  0
 20 21  1  0  0  0  0
 21 22  1  0  0  0  0
 22 23  4  0  0  0  0
 23 24  1  0  0  0  0
 23 25  4  0  0  0  0
 25 26  4  0  0  0  0
 26 27  1  0  0  0  0
 26 28  4  0  0  0  0
 28 29  4  0  0  0  0
 22 29  4  0  0  0  0
 29 30  2  0  0  0  0
 17 31  4  0  0  0  0
  4 31  4  0  0  0  0
 31 32  1  0  0  0  0
 33  3  1  1  0  0  0
 33 34  1  0  0  0  0
 34 35  1  0  0  0  0
 36 35  1  0  0  0  0
 36 37  1  6  0  0  0
 37 38  1  0  0  0  0
 37 39  1  0  0  0  0
 39 40  1  0  0  0  0
 40 41  1  0  0  0  0
 41 42  1  0  0  0  0
 36 43  1  0  0  0  0
 43 44  1  0  0  0  0
 33 44  1  0  0  0  0
M  STY  1   1 DAT
M  SAL   1  1  28
M  SDT   1 MRV_IMPLICIT_H                                        
M  SDD   1     0.0000    0.0000    DR    ALL  0       0  
M  SED   1 IMPL_H1
M  END
>  <CdId>
600

>  <Mol Weight>
605.824

>  <Formula>
C35H51N5O4

>  <Molecule ChEMBL ID>
CHEMBL3672841

>  <Molecule Max Phase>
None

>  <Molecular Weight>
605.82

>  <#RO5 Violations>
1

>  <AlogP>
3.63

>  <Compound Key>
BDBM155254

>  <Standard Type>
IC50

>  <Standard Relation>
'>'

>  <Standard Value>
100000.0

>  <Standard Units>
nM

$$$$

  Mrv2114 03112311372D          

 37 41  0  0  1  0            999 V2000
    3.1599   -3.6020    0.0000 C   0  0  0  0  0  0  0  0  0  0  0  0
    3.5724   -2.8875    0.0000 C   0  0  0  0  0  0  0  0  0  0  0  0
    3.9849   -2.1730    0.0000 C   0  0  0  0  0  0  0  0  0  0  0  0
    2.8579   -2.4750    0.0000 C   0  0  0  0  0  0  0  0  0  0  0  0
    2.1434   -2.8875    0.0000 C   0  0  0  0  0  0  0  0  0  0  0  0
    1.4289   -2.4750    0.0000 N   0  0  0  0  0  0  0  0  0  0  0  0
    0.7145   -2.8875    0.0000 C   0  0  0  0  0  0  0  0  0  0  0  0
    0.0000   -2.4750    0.0000 C   0  0  1  0  0  0  0  0  0  0  0  0
   -0.7145   -2.8875    0.0000 C   0  0  0  0  0  0  0  0  0  0  0  0
   -1.4289   -2.4750    0.0000 C   0  0  0  0  0  0  0  0  0  0  0  0
   -2.1434   -2.8875    0.0000 C   0  0  0  0  0  0  0  0  0  0  0  0
   -2.8579   -2.4750    0.0000 C   0  0  0  0  0  0  0  0  0  0  0  0
   -2.8579   -1.6500    0.0000 C   0  0  0  0  0  0  0  0  0  0  0  0
   -2.1434   -1.2375    0.0000 C   0  0  0  0  0  0  0  0  0  0  0  0
   -1.4289   -1.6500    0.0000 C   0  0  0  0  0  0  0  0  0  0  0  0
   -0.7145   -1.2375    0.0000 C   0  0  0  0  0  0  0  0  0  0  0  0
    0.0000   -1.6500    0.0000 N   0  0  0  0  0  0  0  0  0  0  0  0
    1.4289   -1.6500    0.0000 C   0  0  1  0  0  0  0  0  0  0  0  0
    0.7145   -1.2375    0.0000 C   0  0  0  0  0  0  0  0  0  0  0  0
    0.7145   -0.4125    0.0000 C   0  0  0  0  0  0  0  0  0  0  0  0
    1.4289    0.0000    0.0000 C   0  0  0  0  0  0  0  0  0  0  0  0
    2.1434   -0.4125    0.0000 C   0  0  0  0  0  0  0  0  0  0  0  0
    2.8579    0.0000    0.0000 C   0  0  0  0  0  0  0  0  0  0  0  0
    3.5724   -0.4125    0.0000 C   0  0  0  0  0  0  0  0  0  0  0  0
    3.5724   -1.2375    0.0000 C   0  0  0  0  0  0  0  0  0  0  0  0
    2.8579   -1.6500    0.0000 N   0  0  0  0  0  0  0  0  0  0  0  0
    2.1434   -1.2375    0.0000 C   0  0  0  0  0  0  0  0  0  0  0  0
    4.2868   -3.3000    0.0000 C   0  0  0  0  0  0  0  0  0  0  0  0
    5.0013   -2.8875    0.0000 N   0  0  0  0  0  0  0  0  0  0  0  0
    5.7158   -3.3000    0.0000 C   0  0  0  0  0  0  0  0  0  0  0  0
    6.4302   -2.8875    0.0000 C   0  0  0  0  0  0  0  0  0  0  0  0
    7.1447   -3.3000    0.0000 C   0  0  0  0  0  0  0  0  0  0  0  0
    7.1447   -4.1250    0.0000 C   0  0  0  0  0  0  0  0  0  0  0  0
    7.9572   -3.9817    0.0000 F   0  0  0  0  0  0  0  0  0  0  0  0
    7.4269   -4.9002    0.0000 F   0  0  0  0  0  0  0  0  0  0  0  0
    6.4302   -4.5375    0.0000 C   0  0  0  0  0  0  0  0  0  0  0  0
    5.7158   -4.1250    0.0000 C   0  0  0  0  0  0  0  0  0  0  0  0
  1  2  1  0  0  0  0
  2  3  1  0  0  0  0
  2  4  1  0  0  0  0
  4  5  1  0  0  0  0
  5  6  1  0  0  0  0
  6  7  1  0  0  0  0
  8  7  1  1  0  0  0
  8  9  1  0  0  0  0
  9 10  1  0  0  0  0
 10 11  4  0  0  0  0
 11 12  4  0  0  0  0
 12 13  4  0  0  0  0
 13 14  4  0  0  0  0
 14 15  4  0  0  0  0
 10 15  4  0  0  0  0
 15 16  1  0  0  0  0
 16 17  1  0  0  0  0
  8 17  1  0  0  0  0
 18  6  1  1  0  0  0
 18 19  1  0  0  0  0
 19 20  1  0  0  0  0
 20 21  1  0  0  0  0
 21 22  1  0  0  0  0
 22 23  4  0  0  0  0
 23 24  4  0  0  0  0
 24 25  4  0  0  0  0
 25 26  4  0  0  0  0
 26 27  4  0  0  0  0
 22 27  4  0  0  0  0
 18 27  1  0  0  0  0
  2 28  1  0  0  0  0
 28 29  1  0  0  0  0
 29 30  1  0  0  0  0
 30 31  1  0  0  0  0
 31 32  1  0  0  0  0
 32 33  1  0  0  0  0
 33 34  1  0  0  0  0
 33 35  1  0  0  0  0
 33 36  1  0  0  0  0
 36 37  1  0  0  0  0
 30 37  1  0  0  0  0
M  END
>  <CdId>
601

>  <Mol Weight>
510.718

>  <Formula>
C31H44F2N4

>  <Molecule ChEMBL ID>
CHEMBL4094400

>  <Molecule Max Phase>
None

>  <Molecular Weight>
510.72

>  <#RO5 Violations>
2

>  <AlogP>
6.06

>  <Compound Key>
49b

>  <Standard Type>
IC50

>  <Standard Relation>
'<'

>  <Standard Value>
5000.0

>  <Standard Units>
nM

$$$$

  Mrv2114 03112311372D          

 32 35  0  0  0  0            999 V2000
   -2.6577    1.7457    0.0000 C   0  0  0  0  0  0  0  0  0  0  0  0
   -2.3221    0.9920    0.0000 C   0  0  0  0  0  0  0  0  0  0  0  0
   -1.5152    0.8205    0.0000 C   0  0  0  0  0  0  0  0  0  0  0  0
   -1.4289    0.0000    0.0000 N   0  0  0  0  0  0  0  0  0  0  0  0
   -0.7145   -0.4125    0.0000 C   0  0  0  0  0  0  0  0  0  0  0  0
   -0.7145   -1.2375    0.0000 C   0  0  0  0  0  0  0  0  0  0  0  0
    0.0000   -1.6500    0.0000 C   0  0  0  0  0  0  0  0  0  0  0  0
    0.7145   -1.2375    0.0000 C   0  0  0  0  0  0  0  0  0  0  0  0
    0.7145   -0.4125    0.0000 N   0  0  0  0  0  0  0  0  0  0  0  0
    0.0000   -0.0000    0.0000 C   0  0  0  0  0  0  0  0  0  0  0  0
    0.0000    0.8250    0.0000 O   0  0  0  0  0  0  0  0  0  0  0  0
    1.4289   -0.0000    0.0000 C   0  0  0  0  0  0  0  0  0  0  0  0
    2.1434   -0.4125    0.0000 C   0  0  0  0  0  0  0  0  0  0  0  0
    2.1434   -1.2375    0.0000 N   0  0  0  0  0  0  0  0  0  0  0  0
    2.8579   -1.6500    0.0000 C   0  0  0  0  0  0  0  0  0  0  0  0
    2.8579   -2.4750    0.0000 C   0  0  0  0  0  0  0  0  0  0  0  0
    3.5724   -2.8875    0.0000 O   0  0  0  0  0  0  0  0  0  0  0  0
    3.5724   -3.7125    0.0000 C   0  0  0  0  0  0  0  0  0  0  0  0
    4.2868   -4.1250    0.0000 C   0  0  0  0  0  0  0  0  0  0  0  0
    4.2868   -4.9500    0.0000 C   0  0  0  0  0  0  0  0  0  0  0  0
    3.5724   -5.3625    0.0000 C   0  0  0  0  0  0  0  0  0  0  0  0
    3.5724   -6.1875    0.0000 Cl  0  0  0  0  0  0  0  0  0  0  0  0
    2.8579   -4.9500    0.0000 C   0  0  0  0  0  0  0  0  0  0  0  0
    2.8579   -4.1250    0.0000 C   0  0  0  0  0  0  0  0  0  0  0  0
    2.1434   -3.7125    0.0000 C   0  0  0  0  0  0  0  0  0  0  0  0
    1.4289   -3.3000    0.0000 F   0  0  0  0  0  0  0  0  0  0  0  0
    2.5559   -2.9980    0.0000 F   0  0  0  0  0  0  0  0  0  0  0  0
    1.7309   -4.4270    0.0000 F   0  0  0  0  0  0  0  0  0  0  0  0
    1.4289   -1.6500    0.0000 C   0  0  0  0  0  0  0  0  0  0  0  0
    1.4289   -2.4750    0.0000 O   0  0  0  0  0  0  0  0  0  0  0  0
   -2.1826   -0.3356    0.0000 C   0  0  0  0  0  0  0  0  0  0  0  0
   -2.7346    0.2775    0.0000 N   0  0  0  0  0  0  0  0  0  0  0  0
  1  2  1  0  0  0  0
  2  3  4  0  0  0  0
  3  4  4  0  0  0  0
  4  5  1  0  0  0  0
  5  6  4  0  0  0  0
  6  7  4  0  0  0  0
  7  8  4  0  0  0  0
  8  9  4  0  0  0  0
  9 10  4  0  0  0  0
  5 10  4  0  0  0  0
 10 11  2  0  0  0  0
  9 12  1  0  0  0  0
 12 13  1  0  0  0  0
 13 14  1  0  0  0  0
 14 15  1  0  0  0  0
 15 16  1  0  0  0  0
 16 17  1  0  0  0  0
 17 18  1  0  0  0  0
 18 19  4  0  0  0  0
 19 20  4  0  0  0  0
 20 21  4  0  0  0  0
 21 22  1  0  0  0  0
 21 23  4  0  0  0  0
 23 24  4  0  0  0  0
 18 24  4  0  0  0  0
 24 25  1  0  0  0  0
 25 26  1  0  0  0  0
 25 27  1  0  0  0  0
 25 28  1  0  0  0  0
 14 29  1  0  0  0  0
  8 29  1  0  0  0  0
 29 30  2  0  0  0  0
  4 31  4  0  0  0  0
 31 32  4  0  0  0  0
  2 32  4  0  0  0  0
M  END
>  <CdId>
602

>  <Mol Weight>
466.85

>  <Formula>
C21H18ClF3N4O3

>  <Molecule ChEMBL ID>
CHEMBL3127906

>  <Molecule Max Phase>
None

>  <Molecular Weight>
466.85

>  <#RO5 Violations>
0

>  <AlogP>
3.55

>  <Compound Key>
51

>  <Standard Type>
IC50

>  <Standard Relation>
'='

>  <Standard Value>
12300.0

>  <Standard Units>
nM

$$$$

  Mrv2114 03112311372D          

 23 27  0  0  1  0            999 V2000
    2.3740   -3.6960    0.0000 N   0  0  0  0  0  0  0  0  0  0  0  0
    1.5894   -3.9509    0.0000 C   0  0  0  0  0  0  0  0  0  0  0  0
    0.8048   -4.2059    0.0000 C   0  0  2  0  0  0  0  0  0  0  0  0
    0.5499   -4.9906    0.0000 C   0  0  0  0  0  0  0  0  0  0  0  0
   -0.2751   -4.9906    0.0000 C   0  0  2  0  0  0  0  0  0  0  0  0
   -1.0821   -4.8191    0.0000 C   0  0  0  0  0  0  0  0  0  0  0  0
   -0.5301   -4.2060    0.0000 C   0  0  2  0  0  0  0  0  0  0  0  0
    0.1373   -3.7210    0.0000 N   0  0  0  0  0  0  0  0  0  0  0  0
    0.1373   -2.8960    0.0000 C   0  0  0  0  0  0  0  0  0  0  0  0
   -0.5772   -2.4836    0.0000 O   0  0  0  0  0  0  0  0  0  0  0  0
    0.8517   -2.4835    0.0000 C   0  0  1  0  0  0  0  0  0  0  0  0
    1.5662   -2.8960    0.0000 N   0  0  0  0  0  0  0  0  0  0  0  0
    0.8517   -1.6585    0.0000 C   0  0  0  0  0  0  0  0  0  0  0  0
    0.1163   -2.0322    0.0000 C   0  0  0  0  0  0  0  0  0  0  0  0
    0.5657   -1.2419    0.0000 C   0  0  0  0  0  0  0  0  0  0  0  0
    0.5657   -0.4945    0.0000 C   0  0  0  0  0  0  0  0  0  0  0  0
    1.3012   -0.1208    0.0000 C   0  0  0  0  0  0  0  0  0  0  0  0
    2.0368   -0.4945    0.0000 C   0  0  0  0  0  0  0  0  0  0  0  0
    2.0368   -1.2419    0.0000 C   0  0  0  0  0  0  0  0  0  0  0  0
    2.8344   -1.4529    0.0000 O   0  0  0  0  0  0  0  0  0  0  0  0
    1.3012   -1.6156    0.0000 C   0  0  0  0  0  0  0  0  0  0  0  0
    1.5873   -2.0322    0.0000 C   0  0  0  0  0  0  0  0  0  0  0  0
    0.8517   -0.9111    0.0000 C   0  0  0  0  0  0  0  0  0  0  0  0
  1  2  3  0  0  0  0
  3  2  1  6  0  0  0
  3  4  1  0  0  0  0
  5  4  1  0  0  0  0
  5  6  1  6  0  0  0
  7  6  1  6  0  0  0
  5  7  1  0  0  0  0
  7  8  1  0  0  0  0
  3  8  1  0  0  0  0
  8  9  1  0  0  0  0
  9 10  2  0  0  0  0
 11  9  1  0  0  0  0
 11 12  1  6  0  0  0
 11 13  1  0  0  0  0
 13 14  1  0  0  0  0
 14 15  1  0  0  0  0
 17 23  1  0  0  0  0
 16 17  1  0  0  0  0
 17 18  1  0  0  0  0
 13 22  1  0  0  0  0
 19 20  1  0  0  0  0
 19 21  1  0  0  0  0
 15 21  1  0  0  0  0
 19 22  1  0  0  0  0
 18 19  1  0  0  0  0
 15 16  1  0  0  0  0
 13 23  1  0  0  0  0
M  END
>  <CdId>
603

>  <Mol Weight>
315.417

>  <Formula>
C18H25N3O2

>  <Molecule ChEMBL ID>
CHEMBL385517

>  <Molecule Name>
SAXAGLIPTIN

>  <Molecule Max Phase>
4

>  <Molecular Weight>
315.42

>  <#RO5 Violations>
0

>  <AlogP>
1.16

>  <Compound Key>
Saxagliptin, Onglyza

>  <Standard Type>
IC50

>  <Standard Relation>
'>'

>  <Standard Value>
50000.0

>  <Standard Units>
nM

$$$$

  Mrv2114 03112311372D          

 28 30  0  0  0  0            999 V2000
    2.0367   -0.4741    0.0000 C   0  0  0  0  0  0  0  0  0  0  0  0
    2.0367   -1.2991    0.0000 C   0  0  0  0  0  0  0  0  0  0  0  0
    2.7041   -1.7840    0.0000 C   0  0  0  0  0  0  0  0  0  0  0  0
    3.4888   -1.5291    0.0000 C   0  0  0  0  0  0  0  0  0  0  0  0
    4.1019   -2.0811    0.0000 C   0  0  0  0  0  0  0  0  0  0  0  0
    4.8865   -1.8262    0.0000 C   0  0  0  0  0  0  0  0  0  0  0  0
    5.4996   -2.3782    0.0000 C   0  0  0  0  0  0  0  0  0  0  0  0
    5.3281   -3.1852    0.0000 C   0  0  0  0  0  0  0  0  0  0  0  0
    5.9411   -3.7372    0.0000 C   0  0  0  0  0  0  0  0  0  0  0  0
    6.5542   -4.2893    0.0000 F   0  0  0  0  0  0  0  0  0  0  0  0
    6.4932   -3.1241    0.0000 F   0  0  0  0  0  0  0  0  0  0  0  0
    5.3891   -4.3503    0.0000 F   0  0  0  0  0  0  0  0  0  0  0  0
    4.5434   -3.4401    0.0000 N   0  0  0  0  0  0  0  0  0  0  0  0
    3.9303   -2.8881    0.0000 C   0  0  0  0  0  0  0  0  0  0  0  0
    2.4492   -2.5687    0.0000 C   0  0  0  0  0  0  0  0  0  0  0  0
    1.6242   -2.5687    0.0000 N   0  0  0  0  0  0  0  0  0  0  0  0
    1.3693   -1.7840    0.0000 C   0  0  0  0  0  0  0  0  0  0  0  0
    0.5846   -1.5291    0.0000 C   0  0  0  0  0  0  0  0  0  0  0  0
    0.4131   -0.7221    0.0000 O   0  0  0  0  0  0  0  0  0  0  0  0
   -0.0284   -2.0811    0.0000 N   0  0  0  0  0  0  0  0  0  0  0  0
   -0.8131   -1.8262    0.0000 C   0  0  0  0  0  0  0  0  0  0  0  0
   -0.9846   -1.0192    0.0000 C   0  0  0  0  0  0  0  0  0  0  0  0
   -1.4262   -2.3782    0.0000 C   0  0  0  0  0  0  0  0  0  0  0  0
   -1.3399   -3.1987    0.0000 C   0  0  0  0  0  0  0  0  0  0  0  0
   -2.0936   -3.5343    0.0000 N   0  0  0  0  0  0  0  0  0  0  0  0
   -2.6456   -2.9212    0.0000 N   0  0  0  0  0  0  0  0  0  0  0  0
   -3.4661   -3.0074    0.0000 C   0  0  0  0  0  0  0  0  0  0  0  0
   -2.2331   -2.2067    0.0000 C   0  0  0  0  0  0  0  0  0  0  0  0
  1  2  1  0  0  0  0
  2  3  4  0  0  0  0
  3  4  1  0  0  0  0
  4  5  1  0  0  0  0
  5  6  4  0  0  0  0
  6  7  4  0  0  0  0
  7  8  4  0  0  0  0
  8  9  1  0  0  0  0
  9 10  1  0  0  0  0
  9 11  1  0  0  0  0
  9 12  1  0  0  0  0
  8 13  4  0  0  0  0
 13 14  4  0  0  0  0
  5 14  4  0  0  0  0
  3 15  4  0  0  0  0
 15 16  4  0  0  0  0
 16 17  4  0  0  0  0
  2 17  4  0  0  0  0
 17 18  1  0  0  0  0
 18 19  2  0  0  0  0
 18 20  1  0  0  0  0
 20 21  1  0  0  0  0
 21 22  1  0  0  0  0
 21 23  1  0  0  0  0
 23 24  4  0  0  0  0
 24 25  4  0  0  0  0
 25 26  4  0  0  0  0
 26 27  1  0  0  0  0
 26 28  4  0  0  0  0
 23 28  4  0  0  0  0
M  STY  1   1 DAT
M  SAL   1  1  16
M  SDT   1 MRV_IMPLICIT_H                                        
M  SDD   1     0.0000    0.0000    DR    ALL  0       0  
M  SED   1 IMPL_H1
M  END
>  <CdId>
604

>  <Mol Weight>
391.398

>  <Formula>
C19H20F3N5O

>  <Molecule ChEMBL ID>
CHEMBL4850393

>  <Molecule Max Phase>
None

>  <Molecular Weight>
391.4

>  <#RO5 Violations>
0

>  <AlogP>
3.55

>  <Compound Key>
35; DSM608

>  <Standard Type>
IC50

>  <Standard Relation>
'>'

>  <Standard Value>
20000.0

>  <Standard Units>
nM

$$$$

  Mrv2114 03112311372D          

 41 44  0  0  1  0            999 V2000
   -3.3370   -2.6158    0.0000 C   0  0  0  0  0  0  0  0  0  0  0  0
   -2.5607   -2.8951    0.0000 C   0  0  0  0  0  0  0  0  0  0  0  0
   -2.8401   -3.6714    0.0000 C   0  0  0  0  0  0  0  0  0  0  0  0
   -2.2814   -2.1188    0.0000 O   0  0  0  0  0  0  0  0  0  0  0  0
   -1.7845   -3.1744    0.0000 C   0  0  0  0  0  0  0  0  0  0  0  0
   -1.1544   -2.6418    0.0000 C   0  0  0  0  0  0  0  0  0  0  0  0
   -1.3007   -1.8299    0.0000 O   0  0  0  0  0  0  0  0  0  0  0  0
   -0.3781   -2.9211    0.0000 N   0  0  0  0  0  0  0  0  0  0  0  0
    0.2519   -2.3885    0.0000 C   0  0  2  0  0  0  0  0  0  0  0  0
    0.1913   -1.5657    0.0000 C   0  0  0  0  0  0  0  0  0  0  0  0
    0.9551   -1.2539    0.0000 C   0  0  0  0  0  0  0  0  0  0  0  0
    1.4877   -1.8839    0.0000 C   0  0  1  0  0  0  0  0  0  0  0  0
    1.8467   -1.1411    0.0000 S   0  0  0  0  0  0  0  0  0  0  0  0
    2.5737   -0.7511    0.0000 O   0  0  0  0  0  0  0  0  0  0  0  0
    1.1038   -0.7822    0.0000 O   0  0  0  0  0  0  0  0  0  0  0  0
    2.2056   -0.3983    0.0000 C   0  0  0  0  0  0  0  0  0  0  0  0
    1.7417    0.2840    0.0000 C   0  0  0  0  0  0  0  0  0  0  0  0
    2.1007    1.0268    0.0000 C   0  0  0  0  0  0  0  0  0  0  0  0
    2.9234    1.0874    0.0000 C   0  0  0  0  0  0  0  0  0  0  0  0
    3.2824    1.8302    0.0000 F   0  0  0  0  0  0  0  0  0  0  0  0
    3.3873    0.4051    0.0000 C   0  0  0  0  0  0  0  0  0  0  0  0
    3.0284   -0.3377    0.0000 C   0  0  0  0  0  0  0  0  0  0  0  0
    2.3123   -1.9097    0.0000 C   0  0  0  0  0  0  0  0  0  0  0  0
    2.7469   -1.2084    0.0000 C   0  0  0  0  0  0  0  0  0  0  0  0
    3.5715   -1.2342    0.0000 C   0  0  0  0  0  0  0  0  0  0  0  0
    3.9615   -1.9612    0.0000 C   0  0  0  0  0  0  0  0  0  0  0  0
    4.7861   -1.9870    0.0000 C   0  0  0  0  0  0  0  0  0  0  0  0
    4.8119   -1.1624    0.0000 F   0  0  0  0  0  0  0  0  0  0  0  0
    4.7603   -2.8116    0.0000 C   0  0  0  0  0  0  0  0  0  0  0  0
    4.7346   -3.6362    0.0000 F   0  0  0  0  0  0  0  0  0  0  0  0
    3.9358   -2.7858    0.0000 F   0  0  0  0  0  0  0  0  0  0  0  0
    5.5849   -2.8373    0.0000 F   0  0  0  0  0  0  0  0  0  0  0  0
    5.6107   -2.0127    0.0000 C   0  0  0  0  0  0  0  0  0  0  0  0
    6.4353   -2.0385    0.0000 F   0  0  0  0  0  0  0  0  0  0  0  0
    6.0746   -2.6950    0.0000 F   0  0  0  0  0  0  0  0  0  0  0  0
    5.6365   -1.1881    0.0000 F   0  0  0  0  0  0  0  0  0  0  0  0
    3.5269   -2.6624    0.0000 C   0  0  0  0  0  0  0  0  0  0  0  0
    2.7023   -2.6367    0.0000 C   0  0  0  0  0  0  0  0  0  0  0  0
    2.2677   -3.3379    0.0000 C   0  0  0  0  0  0  0  0  0  0  0  0
    1.4431   -3.3122    0.0000 C   0  0  0  0  0  0  0  0  0  0  0  0
    1.0531   -2.5852    0.0000 C   0  0  1  0  0  0  0  0  0  0  0  0
  1  2  1  0  0  0  0
  2  3  1  0  0  0  0
  2  4  1  0  0  0  0
  2  5  1  0  0  0  0
  5  6  1  0  0  0  0
  6  7  2  0  0  0  0
  6  8  1  0  0  0  0
  9  8  1  6  0  0  0
  9 10  1  0  0  0  0
 10 11  1  0  0  0  0
 12 11  1  0  0  0  0
 12 13  1  6  0  0  0
 13 14  2  0  0  0  0
 13 15  2  0  0  0  0
 13 16  1  0  0  0  0
 16 17  4  0  0  0  0
 17 18  4  0  0  0  0
 18 19  4  0  0  0  0
 19 20  1  0  0  0  0
 19 21  4  0  0  0  0
 21 22  4  0  0  0  0
 16 22  4  0  0  0  0
 12 23  1  0  0  0  0
 23 24  4  0  0  0  0
 24 25  4  0  0  0  0
 25 26  4  0  0  0  0
 26 27  1  0  0  0  0
 27 28  1  0  0  0  0
 27 29  1  0  0  0  0
 29 30  1  0  0  0  0
 29 31  1  0  0  0  0
 29 32  1  0  0  0  0
 27 33  1  0  0  0  0
 33 34  1  0  0  0  0
 33 35  1  0  0  0  0
 33 36  1  0  0  0  0
 26 37  4  0  0  0  0
 37 38  4  0  0  0  0
 23 38  4  0  0  0  0
 38 39  1  0  0  0  0
 39 40  1  0  0  0  0
 41 40  1  1  0  0  0
 41  9  1  0  0  0  0
 41 12  1  0  0  0  0
M  END
>  <CdId>
605

>  <Mol Weight>
613.56

>  <Formula>
C27H27F8NO4S

>  <Molecule ChEMBL ID>
CHEMBL4784900

>  <Molecule Max Phase>
None

>  <Molecular Weight>
613.57

>  <#RO5 Violations>
2

>  <AlogP>
5.79

>  <Compound Key>
3b

>  <Standard Type>
IC50

>  <Standard Relation>
'='

>  <Standard Value>
12000.0

>  <Standard Units>
nM

$$$$

  Mrv2114 03112311372D          

 31 34  0  0  0  0            999 V2000
    3.0008   12.8756    0.0000 N   0  0  0  0  0  0  0  0  0  0  0  0
    2.8012   12.0751    0.0000 C   0  0  0  0  0  0  0  0  0  0  0  0
    2.6016   11.2746    0.0000 C   0  0  0  0  0  0  0  0  0  0  0  0
    3.1951   10.7015    0.0000 C   0  0  0  0  0  0  0  0  0  0  0  0
    2.9955    9.9010    0.0000 C   0  0  0  0  0  0  0  0  0  0  0  0
    2.2025    9.6736    0.0000 C   0  0  0  0  0  0  0  0  0  0  0  0
    2.0029    8.8731    0.0000 C   0  0  0  0  0  0  0  0  0  0  0  0
    2.5963    8.3000    0.0000 N   0  0  0  0  0  0  0  0  0  0  0  0
    3.4088    8.4433    0.0000 C   0  0  0  0  0  0  0  0  0  0  0  0
    3.7961    7.7149    0.0000 C   0  0  0  0  0  0  0  0  0  0  0  0
    3.2230    7.1214    0.0000 C   0  0  0  0  0  0  0  0  0  0  0  0
    3.3663    6.3089    0.0000 N   0  0  0  0  0  0  0  0  0  0  0  0
    2.7343    5.7786    0.0000 C   0  0  0  0  0  0  0  0  0  0  0  0
    1.9590    6.0608    0.0000 O   0  0  0  0  0  0  0  0  0  0  0  0
    2.8775    4.9662    0.0000 C   0  0  0  0  0  0  0  0  0  0  0  0
    2.2456    4.4359    0.0000 C   0  0  0  0  0  0  0  0  0  0  0  0
    2.3888    3.6234    0.0000 C   0  0  0  0  0  0  0  0  0  0  0  0
    1.7568    3.0931    0.0000 C   0  0  0  0  0  0  0  0  0  0  0  0
    0.9816    3.3753    0.0000 C   0  0  0  0  0  0  0  0  0  0  0  0
    0.3496    2.8450    0.0000 C   0  0  0  0  0  0  0  0  0  0  0  0
   -0.2824    3.3753    0.0000 C   0  0  0  0  0  0  0  0  0  0  0  0
   -0.9144    3.9056    0.0000 F   0  0  0  0  0  0  0  0  0  0  0  0
    0.2479    4.0073    0.0000 F   0  0  0  0  0  0  0  0  0  0  0  0
   -0.8127    2.7433    0.0000 F   0  0  0  0  0  0  0  0  0  0  0  0
    0.7621    2.1305    0.0000 C   0  0  0  0  0  0  0  0  0  0  0  0
   -0.0629    2.1305    0.0000 C   0  0  0  0  0  0  0  0  0  0  0  0
    0.8383    4.1877    0.0000 C   0  0  0  0  0  0  0  0  0  0  0  0
    1.4703    4.7180    0.0000 C   0  0  0  0  0  0  0  0  0  0  0  0
    2.4815    7.4831    0.0000 N   0  0  0  0  0  0  0  0  0  0  0  0
    1.6090   10.2467    0.0000 N   0  0  0  0  0  0  0  0  0  0  0  0
    1.8086   11.0472    0.0000 C   0  0  0  0  0  0  0  0  0  0  0  0
  1  2  3  0  0  0  0
  2  3  1  0  0  0  0
  3  4  4  0  0  0  0
  4  5  4  0  0  0  0
  5  6  4  0  0  0  0
  6  7  1  0  0  0  0
  7  8  1  0  0  0  0
  8  9  4  0  0  0  0
  9 10  4  0  0  0  0
 10 11  4  0  0  0  0
 11 12  1  0  0  0  0
 12 13  1  0  0  0  0
 13 14  2  0  0  0  0
 13 15  1  0  0  0  0
 15 16  1  0  0  0  0
 16 17  4  0  0  0  0
 17 18  4  0  0  0  0
 18 19  4  0  0  0  0
 19 20  1  0  0  0  0
 20 21  1  0  0  0  0
 21 22  1  0  0  0  0
 21 23  1  0  0  0  0
 21 24  1  0  0  0  0
 20 25  1  0  0  0  0
 25 26  1  0  0  0  0
 20 26  1  0  0  0  0
 19 27  4  0  0  0  0
 27 28  4  0  0  0  0
 16 28  4  0  0  0  0
 11 29  4  0  0  0  0
  8 29  4  0  0  0  0
  6 30  4  0  0  0  0
 30 31  4  0  0  0  0
  3 31  4  0  0  0  0
M  END
>  <CdId>
606

>  <Mol Weight>
425.415

>  <Formula>
C22H18F3N5O

>  <Molecule ChEMBL ID>
CHEMBL4217292

>  <Molecule Name>
APINOCALTAMIDE

>  <Molecule Max Phase>
2

>  <Molecular Weight>
425.41

>  <#RO5 Violations>
0

>  <AlogP>
3.97

>  <Compound Key>
66b; ACT-709478

>  <Standard Type>
IC50

>  <Standard Relation>
'='

>  <Standard Value>
14000.0

>  <Standard Units>
nM

$$$$

  Mrv2114 03112311372D          

 36 40  0  0  1  0            999 V2000
    5.0013   -3.7125    0.0000 C   0  0  0  0  0  0  0  0  0  0  0  0
    5.0013   -2.8875    0.0000 N   0  0  0  0  0  0  0  0  0  0  0  0
    5.7158   -2.4750    0.0000 C   0  0  0  0  0  0  0  0  0  0  0  0
    6.4302   -2.8875    0.0000 C   0  0  0  0  0  0  0  0  0  0  0  0
    7.1447   -2.4750    0.0000 C   0  0  0  0  0  0  0  0  0  0  0  0
    7.8592   -2.8875    0.0000 C   0  0  0  0  0  0  0  0  0  0  0  0
    8.5737   -2.4750    0.0000 N   0  0  0  0  0  0  0  0  0  0  0  0
    9.2881   -2.8875    0.0000 C   0  0  0  0  0  0  0  0  0  0  0  0
    9.2881   -3.7125    0.0000 C   0  0  1  0  0  0  0  0  0  0  0  0
    8.5737   -4.1250    0.0000 C   0  0  0  0  0  0  0  0  0  0  0  0
    8.5737   -4.9500    0.0000 C   0  0  0  0  0  0  0  0  0  0  0  0
    7.8592   -5.3625    0.0000 N   0  0  0  0  0  0  0  0  0  0  0  0
    7.8592   -6.1875    0.0000 C   0  0  0  0  0  0  0  0  0  0  0  0
    8.5737   -6.6000    0.0000 C   0  0  0  0  0  0  0  0  0  0  0  0
    9.2881   -6.1875    0.0000 C   0  0  0  0  0  0  0  0  0  0  0  0
    9.2881   -5.3625    0.0000 C   0  0  0  0  0  0  0  0  0  0  0  0
   10.0026   -4.9500    0.0000 C   0  0  0  0  0  0  0  0  0  0  0  0
   10.0026   -4.1250    0.0000 N   0  0  0  0  0  0  0  0  0  0  0  0
    8.5737   -1.6500    0.0000 C   0  0  1  0  0  0  0  0  0  0  0  0
    7.8592   -1.2375    0.0000 C   0  0  0  0  0  0  0  0  0  0  0  0
    7.8592   -0.4125    0.0000 C   0  0  0  0  0  0  0  0  0  0  0  0
    8.5737    0.0000    0.0000 C   0  0  0  0  0  0  0  0  0  0  0  0
    9.2881   -0.4125    0.0000 C   0  0  0  0  0  0  0  0  0  0  0  0
   10.0026    0.0000    0.0000 C   0  0  0  0  0  0  0  0  0  0  0  0
   10.7171   -0.4125    0.0000 C   0  0  0  0  0  0  0  0  0  0  0  0
   10.7171   -1.2375    0.0000 C   0  0  0  0  0  0  0  0  0  0  0  0
   10.0026   -1.6500    0.0000 N   0  0  0  0  0  0  0  0  0  0  0  0
    9.2881   -1.2375    0.0000 C   0  0  0  0  0  0  0  0  0  0  0  0
    4.2868   -2.4750    0.0000 C   0  0  0  0  0  0  0  0  0  0  0  0
    3.5724   -2.8875    0.0000 C   0  0  0  0  0  0  0  0  0  0  0  0
    2.8579   -2.4750    0.0000 C   0  0  0  0  0  0  0  0  0  0  0  0
    2.8579   -1.6500    0.0000 C   0  0  0  0  0  0  0  0  0  0  0  0
    2.0454   -1.7933    0.0000 F   0  0  0  0  0  0  0  0  0  0  0  0
    2.5757   -0.8748    0.0000 F   0  0  0  0  0  0  0  0  0  0  0  0
    3.5724   -1.2375    0.0000 C   0  0  0  0  0  0  0  0  0  0  0  0
    4.2868   -1.6500    0.0000 C   0  0  0  0  0  0  0  0  0  0  0  0
  1  2  1  0  0  0  0
  2  3  1  0  0  0  0
  3  4  1  0  0  0  0
  4  5  1  0  0  0  0
  5  6  1  0  0  0  0
  6  7  1  0  0  0  0
  7  8  1  0  0  0  0
  9  8  1  6  0  0  0
  9 10  1  0  0  0  0
 10 11  1  0  0  0  0
 11 12  4  0  0  0  0
 12 13  4  0  0  0  0
 13 14  4  0  0  0  0
 14 15  4  0  0  0  0
 15 16  4  0  0  0  0
 11 16  4  0  0  0  0
 16 17  1  0  0  0  0
 17 18  1  0  0  0  0
  9 18  1  0  0  0  0
 19  7  1  1  0  0  0
 19 20  1  0  0  0  0
 20 21  1  0  0  0  0
 21 22  1  0  0  0  0
 22 23  1  0  0  0  0
 23 24  4  0  0  0  0
 24 25  4  0  0  0  0
 25 26  4  0  0  0  0
 26 27  4  0  0  0  0
 27 28  4  0  0  0  0
 23 28  4  0  0  0  0
 19 28  1  0  0  0  0
  2 29  1  0  0  0  0
 29 30  1  0  0  0  0
 30 31  1  0  0  0  0
 31 32  1  0  0  0  0
 32 33  1  0  0  0  0
 32 34  1  0  0  0  0
 32 35  1  0  0  0  0
 35 36  1  0  0  0  0
 29 36  1  0  0  0  0
M  END
>  <CdId>
607

>  <Mol Weight>
497.679

>  <Formula>
C29H41F2N5

>  <Molecule ChEMBL ID>
CHEMBL5093818

>  <Molecule Max Phase>
None

>  <Molecular Weight>
497.68

>  <#RO5 Violations>
1

>  <AlogP>
5.16

>  <Compound Key>
30

>  <Standard Type>
IC50

>  <Standard Relation>
'>'

>  <Standard Value>
20000.0

>  <Standard Units>
nM

$$$$

  Mrv2114 03112311372D          

 31 34  0  0  0  0            999 V2000
   -3.5724    0.4125    0.0000 C   0  0  0  0  0  0  0  0  0  0  0  0
   -2.8579   -0.0000    0.0000 S   0  0  0  0  0  0  0  0  0  0  0  0
   -3.2704   -0.7145    0.0000 O   0  0  0  0  0  0  0  0  0  0  0  0
   -2.4454    0.7145    0.0000 O   0  0  0  0  0  0  0  0  0  0  0  0
   -2.1434   -0.4125    0.0000 C   0  0  0  0  0  0  0  0  0  0  0  0
   -1.4289   -0.0000    0.0000 C   0  0  0  0  0  0  0  0  0  0  0  0
   -0.7145   -0.4125    0.0000 C   0  0  0  0  0  0  0  0  0  0  0  0
   -0.7145   -1.2375    0.0000 C   0  0  0  0  0  0  0  0  0  0  0  0
    0.0000   -1.6500    0.0000 C   0  0  0  0  0  0  0  0  0  0  0  0
    0.7145   -1.2375    0.0000 N   0  0  0  0  0  0  0  0  0  0  0  0
    1.4289   -1.6500    0.0000 C   0  0  0  0  0  0  0  0  0  0  0  0
    2.1434   -1.2375    0.0000 O   0  0  0  0  0  0  0  0  0  0  0  0
    1.4289   -2.4750    0.0000 C   0  0  0  0  0  0  0  0  0  0  0  0
    2.0964   -2.9599    0.0000 C   0  0  0  0  0  0  0  0  0  0  0  0
    1.8414   -3.7445    0.0000 C   0  0  0  0  0  0  0  0  0  0  0  0
    1.0164   -3.7445    0.0000 C   0  0  0  0  0  0  0  0  0  0  0  0
    0.7615   -2.9599    0.0000 C   0  0  0  0  0  0  0  0  0  0  0  0
    0.7145   -0.4125    0.0000 C   0  0  0  0  0  0  0  0  0  0  0  0
    0.0000    0.0000    0.0000 C   0  0  0  0  0  0  0  0  0  0  0  0
    0.0000    0.8250    0.0000 C   0  0  0  0  0  0  0  0  0  0  0  0
   -0.7145    1.2375    0.0000 F   0  0  0  0  0  0  0  0  0  0  0  0
    0.7145    1.2375    0.0000 C   0  0  0  0  0  0  0  0  0  0  0  0
    1.4289    0.8250    0.0000 C   0  0  0  0  0  0  0  0  0  0  0  0
    2.1434    1.2375    0.0000 C   0  0  0  0  0  0  0  0  0  0  0  0
    2.2296    2.0580    0.0000 N   0  0  0  0  0  0  0  0  0  0  0  0
    3.0366    2.2295    0.0000 N   0  0  0  0  0  0  0  0  0  0  0  0
    3.4491    1.5150    0.0000 N   0  0  0  0  0  0  0  0  0  0  0  0
    2.8971    0.9019    0.0000 N   0  0  0  0  0  0  0  0  0  0  0  0
    1.4289    0.0000    0.0000 C   0  0  0  0  0  0  0  0  0  0  0  0
   -1.4289   -1.6500    0.0000 C   0  0  0  0  0  0  0  0  0  0  0  0
   -2.1434   -1.2375    0.0000 C   0  0  0  0  0  0  0  0  0  0  0  0
  1  2  1  0  0  0  0
  2  3  2  0  0  0  0
  2  4  2  0  0  0  0
  2  5  1  0  0  0  0
  5  6  4  0  0  0  0
  6  7  4  0  0  0  0
  7  8  4  0  0  0  0
  8  9  1  0  0  0  0
  9 10  1  0  0  0  0
 10 11  1  0  0  0  0
 11 12  2  0  0  0  0
 11 13  1  0  0  0  0
 13 14  1  0  0  0  0
 14 15  1  0  0  0  0
 15 16  1  0  0  0  0
 16 17  1  0  0  0  0
 13 17  1  0  0  0  0
 10 18  1  0  0  0  0
 18 19  4  0  0  0  0
 19 20  4  0  0  0  0
 20 21  1  0  0  0  0
 20 22  4  0  0  0  0
 22 23  4  0  0  0  0
 23 24  1  0  0  0  0
 24 25  4  0  0  0  0
 25 26  4  0  0  0  0
 26 27  4  0  0  0  0
 27 28  4  0  0  0  0
 24 28  4  0  0  0  0
 23 29  4  0  0  0  0
 18 29  4  0  0  0  0
  8 30  4  0  0  0  0
 30 31  4  0  0  0  0
  5 31  4  0  0  0  0
M  STY  1   1 DAT
M  SAL   1  1  28
M  SDT   1 MRV_IMPLICIT_H                                        
M  SDD   1     0.0000    0.0000    DR    ALL  0       0  
M  SED   1 IMPL_H1
M  END
>  <CdId>
608

>  <Mol Weight>
443.5

>  <Formula>
C21H22FN5O3S

>  <Molecule ChEMBL ID>
CHEMBL2036223

>  <Molecule Max Phase>
None

>  <Molecular Weight>
443.5

>  <#RO5 Violations>
0

>  <AlogP>
3.13

>  <Compound Key>
61

>  <Standard Type>
IC50

>  <Standard Relation>
'='

>  <Standard Value>
220.0

>  <Standard Units>
nM

$$$$

  Mrv2114 03112311372D          

 34 39  0  0  1  0            999 V2000
    5.7158   -6.6000    0.0000 C   0  0  0  0  0  0  0  0  0  0  0  0
    5.0013   -6.1875    0.0000 C   0  0  0  0  0  0  0  0  0  0  0  0
    5.0013   -5.3625    0.0000 C   0  0  0  0  0  0  0  0  0  0  0  0
    4.2868   -4.9500    0.0000 C   0  0  0  0  0  0  0  0  0  0  0  0
    3.5724   -5.3625    0.0000 C   0  0  0  0  0  0  0  0  0  0  0  0
    2.8579   -4.9500    0.0000 C   0  0  0  0  0  0  0  0  0  0  0  0
    2.1434   -5.3625    0.0000 C   0  0  0  0  0  0  0  0  0  0  0  0
    2.1434   -6.1875    0.0000 C   0  0  0  0  0  0  0  0  0  0  0  0
    2.8579   -6.6000    0.0000 C   0  0  0  0  0  0  0  0  0  0  0  0
    3.5724   -6.1875    0.0000 C   0  0  0  0  0  0  0  0  0  0  0  0
    4.2868   -6.6000    0.0000 N   0  0  0  0  0  0  0  0  0  0  0  0
    1.4289   -4.9500    0.0000 O   0  0  0  0  0  0  0  0  0  0  0  0
    1.4289   -4.1250    0.0000 C   0  0  0  0  0  0  0  0  0  0  0  0
    2.1434   -3.7125    0.0000 C   0  0  2  0  0  0  0  0  0  0  0  0
    2.1434   -2.8875    0.0000 C   0  0  0  0  0  0  0  0  0  0  0  0
    2.8579   -2.4750    0.0000 N   0  0  0  0  0  0  0  0  0  0  0  0
    2.8579   -1.6500    0.0000 C   0  0  0  0  0  0  0  0  0  0  0  0
    3.5724   -1.2375    0.0000 C   0  0  0  0  0  0  0  0  0  0  0  0
    4.2868   -1.6500    0.0000 N   0  0  0  0  0  0  0  0  0  0  0  0
    5.0013   -1.2375    0.0000 C   0  0  0  0  0  0  0  0  0  0  0  0
    5.0013   -0.4125    0.0000 C   0  0  0  0  0  0  0  0  0  0  0  0
    5.7158    0.0000    0.0000 C   0  0  0  0  0  0  0  0  0  0  0  0
    6.4302   -0.4125    0.0000 C   0  0  0  0  0  0  0  0  0  0  0  0
    7.1447    0.0000    0.0000 C   0  0  0  0  0  0  0  0  0  0  0  0
    7.8592   -0.4125    0.0000 C   0  0  0  0  0  0  0  0  0  0  0  0
    8.5737    0.0000    0.0000 C   0  0  0  0  0  0  0  0  0  0  0  0
    9.2881    0.4125    0.0000 N   0  0  0  0  0  0  0  0  0  0  0  0
    7.8592   -1.2375    0.0000 C   0  0  0  0  0  0  0  0  0  0  0  0
    7.1447   -1.6500    0.0000 C   0  0  0  0  0  0  0  0  0  0  0  0
    6.4302   -1.2375    0.0000 C   0  0  0  0  0  0  0  0  0  0  0  0
    5.7158   -1.6500    0.0000 N   0  0  0  0  0  0  0  0  0  0  0  0
    4.2868   -2.4750    0.0000 C   0  0  0  0  0  0  0  0  0  0  0  0
    3.5724   -2.8875    0.0000 C   0  0  0  0  0  0  0  0  0  0  0  0
    2.8579   -4.1250    0.0000 O   0  0  0  0  0  0  0  0  0  0  0  0
  1  2  1  0  0  0  0
  2  3  4  0  0  0  0
  3  4  4  0  0  0  0
  4  5  4  0  0  0  0
  5  6  4  0  0  0  0
  6  7  4  0  0  0  0
  7  8  4  0  0  0  0
  8  9  4  0  0  0  0
  9 10  4  0  0  0  0
  5 10  4  0  0  0  0
 10 11  4  0  0  0  0
  2 11  4  0  0  0  0
  7 12  1  0  0  0  0
 12 13  1  0  0  0  0
 14 13  1  0  0  0  0
 14 15  1  6  0  0  0
 15 16  1  0  0  0  0
 16 17  1  0  0  0  0
 17 18  1  0  0  0  0
 18 19  1  0  0  0  0
 19 20  1  0  0  0  0
 20 21  4  0  0  0  0
 21 22  4  0  0  0  0
 22 23  4  0  0  0  0
 23 24  4  0  0  0  0
 24 25  4  0  0  0  0
 25 26  1  0  0  0  0
 26 27  3  0  0  0  0
 25 28  4  0  0  0  0
 28 29  4  0  0  0  0
 29 30  4  0  0  0  0
 23 30  4  0  0  0  0
 30 31  4  0  0  0  0
 20 31  4  0  0  0  0
 19 32  1  0  0  0  0
 32 33  1  0  0  0  0
 16 33  1  0  0  0  0
 14 34  1  0  0  0  0
  6 34  1  0  0  0  0
M  END
>  <CdId>
609

>  <Mol Weight>
451.53

>  <Formula>
C27H25N5O2

>  <Molecule ChEMBL ID>
CHEMBL551964

>  <Molecule Max Phase>
None

>  <Molecular Weight>
451.53

>  <#RO5 Violations>
0

>  <AlogP>
3.93

>  <Compound Key>
7

>  <Standard Type>
IC50

>  <Standard Relation>
'='

>  <Standard Value>
29000.0

>  <Standard Units>
nM

$$$$

  Mrv2114 03112311372D          

 30 34  0  0  1  0            999 V2000
   -1.6904   -1.6839    0.0000 C   0  0  0  0  0  0  0  0  0  0  0  0
   -1.2779   -0.9694    0.0000 C   0  0  0  0  0  0  0  0  0  0  0  0
   -1.6904   -0.2549    0.0000 C   0  0  0  0  0  0  0  0  0  0  0  0
   -1.2779    0.4595    0.0000 C   0  0  0  0  0  0  0  0  0  0  0  0
   -1.6904    1.1740    0.0000 C   0  0  0  0  0  0  0  0  0  0  0  0
   -0.4529    0.4595    0.0000 N   0  0  0  0  0  0  0  0  0  0  0  0
   -0.0404   -0.2549    0.0000 C   0  0  0  0  0  0  0  0  0  0  0  0
    0.7846   -0.2549    0.0000 N   0  0  0  0  0  0  0  0  0  0  0  0
    1.2695    0.4125    0.0000 C   0  0  0  0  0  0  0  0  0  0  0  0
    2.0542    0.1576    0.0000 C   0  0  1  0  0  0  0  0  0  0  0  0
    2.8388    0.4125    0.0000 C   0  0  0  0  0  0  0  0  0  0  0  0
    3.3237   -0.2549    0.0000 N   0  0  0  0  0  0  0  0  0  0  0  0
    4.1487   -0.2549    0.0000 C   0  0  0  0  0  0  0  0  0  0  0  0
    4.5612   -0.9694    0.0000 O   0  0  0  0  0  0  0  0  0  0  0  0
    4.5612    0.4595    0.0000 C   0  0  0  0  0  0  0  0  0  0  0  0
    4.1487    1.1740    0.0000 C   0  0  0  0  0  0  0  0  0  0  0  0
    3.3237    1.1740    0.0000 F   0  0  0  0  0  0  0  0  0  0  0  0
    4.5612    1.8885    0.0000 C   0  0  0  0  0  0  0  0  0  0  0  0
    5.3862    1.8885    0.0000 C   0  0  0  0  0  0  0  0  0  0  0  0
    5.7987    1.1740    0.0000 C   0  0  0  0  0  0  0  0  0  0  0  0
    5.3862    0.4595    0.0000 C   0  0  0  0  0  0  0  0  0  0  0  0
    5.7987   -0.2549    0.0000 N   0  0  0  0  0  0  0  0  0  0  0  0
    6.6192   -0.3412    0.0000 N   0  0  0  0  0  0  0  0  0  0  0  0
    6.7907   -1.1481    0.0000 C   0  0  0  0  0  0  0  0  0  0  0  0
    6.0762   -1.5606    0.0000 C   0  0  0  0  0  0  0  0  0  0  0  0
    5.4632   -1.0086    0.0000 N   0  0  0  0  0  0  0  0  0  0  0  0
    2.8388   -0.9224    0.0000 C   0  0  0  0  0  0  0  0  0  0  0  0
    2.0542   -0.6674    0.0000 C   0  0  1  0  0  0  0  0  0  0  0  0
    1.2695   -0.9224    0.0000 C   0  0  0  0  0  0  0  0  0  0  0  0
   -0.4529   -0.9694    0.0000 N   0  0  0  0  0  0  0  0  0  0  0  0
  1  2  1  0  0  0  0
  2  3  4  0  0  0  0
  3  4  4  0  0  0  0
  4  5  1  0  0  0  0
  4  6  4  0  0  0  0
  6  7  4  0  0  0  0
  7  8  1  0  0  0  0
  8  9  1  0  0  0  0
 10  9  1  1  0  0  0
 10 11  1  0  0  0  0
 11 12  1  0  0  0  0
 12 13  1  0  0  0  0
 13 14  2  0  0  0  0
 13 15  1  0  0  0  0
 15 16  4  0  0  0  0
 16 17  1  0  0  0  0
 16 18  4  0  0  0  0
 18 19  4  0  0  0  0
 19 20  4  0  0  0  0
 20 21  4  0  0  0  0
 15 21  4  0  0  0  0
 21 22  1  0  0  0  0
 22 23  4  0  0  0  0
 23 24  4  0  0  0  0
 24 25  4  0  0  0  0
 25 26  4  0  0  0  0
 22 26  4  0  0  0  0
 12 27  1  0  0  0  0
 28 27  1  1  0  0  0
 10 28  1  0  0  0  0
 28 29  1  0  0  0  0
  8 29  1  0  0  0  0
  7 30  4  0  0  0  0
  2 30  4  0  0  0  0
M  END
>  <CdId>
610

>  <Mol Weight>
407.453

>  <Formula>
C21H22FN7O

>  <Molecule ChEMBL ID>
CHEMBL3586436

>  <Molecule Max Phase>
None

>  <Molecular Weight>
407.45

>  <#RO5 Violations>
0

>  <AlogP>
2.02

>  <Compound Key>
34, JNJ-42847922

>  <Standard Type>
IC50

>  <Standard Relation>
'>'

>  <Standard Value>
10000.0

>  <Standard Units>
nM

$$$$

  Mrv2114 03112311372D          

 37 40  0  0  1  0            999 V2000
    6.0552    3.5290    0.0000 C   0  0  0  0  0  0  0  0  0  0  0  0
    5.5486    2.8778    0.0000 N   0  0  0  0  0  0  0  0  0  0  0  0
    4.7314    2.9910    0.0000 C   0  0  0  0  0  0  0  0  0  0  0  0
    4.4208    3.7552    0.0000 O   0  0  0  0  0  0  0  0  0  0  0  0
    4.2249    2.3398    0.0000 N   0  0  0  0  0  0  0  0  0  0  0  0
    3.4077    2.4529    0.0000 C   0  0  0  0  0  0  0  0  0  0  0  0
    2.9011    1.8017    0.0000 C   0  0  0  0  0  0  0  0  0  0  0  0
    2.0839    1.9148    0.0000 C   0  0  0  0  0  0  0  0  0  0  0  0
    1.7732    2.6791    0.0000 C   0  0  0  0  0  0  0  0  0  0  0  0
    2.2798    3.3303    0.0000 C   0  0  0  0  0  0  0  0  0  0  0  0
    3.0970    3.2172    0.0000 C   0  0  0  0  0  0  0  0  0  0  0  0
    1.8170    4.0133    0.0000 C   0  0  0  0  0  0  0  0  0  0  0  0
    1.0245    3.7842    0.0000 C   0  0  0  0  0  0  0  0  0  0  0  0
    0.9974    2.9597    0.0000 C   0  0  1  0  0  0  0  0  0  0  0  0
    0.9703    2.1351    0.0000 O   0  0  0  0  0  0  0  0  0  0  0  0
    0.1778    1.9060    0.0000 C   0  0  0  0  0  0  0  0  0  0  0  0
   -0.1028    1.1302    0.0000 O   0  0  0  0  0  0  0  0  0  0  0  0
   -0.2850    2.5890    0.0000 N   0  0  0  0  0  0  0  0  0  0  0  0
   -1.1096    2.6161    0.0000 C   0  0  0  0  0  0  0  0  0  0  0  0
   -1.5453    1.9155    0.0000 C   0  0  0  0  0  0  0  0  0  0  0  0
   -1.1564    1.1879    0.0000 O   0  0  0  0  0  0  0  0  0  0  0  0
   -2.3698    1.9426    0.0000 N   0  0  0  0  0  0  0  0  0  0  0  0
   -2.8055    1.2421    0.0000 C   0  0  0  0  0  0  0  0  0  0  0  0
   -3.6301    1.2691    0.0000 C   0  0  0  0  0  0  0  0  0  0  0  0
   -4.0658    0.5686    0.0000 C   0  0  0  0  0  0  0  0  0  0  0  0
   -4.8904    0.5956    0.0000 C   0  0  0  0  0  0  0  0  0  0  0  0
   -5.2792    1.3233    0.0000 C   0  0  0  0  0  0  0  0  0  0  0  0
   -4.8435    2.0238    0.0000 C   0  0  0  0  0  0  0  0  0  0  0  0
   -4.0189    1.9967    0.0000 C   0  0  0  0  0  0  0  0  0  0  0  0
   -2.7587    2.6702    0.0000 C   0  0  1  0  0  0  0  0  0  0  0  0
   -3.5832    2.6973    0.0000 C   0  0  0  0  0  0  0  0  0  0  0  0
   -2.3229    3.3708    0.0000 C   0  0  0  0  0  0  0  0  0  0  0  0
   -1.6224    2.9351    0.0000 F   0  0  0  0  0  0  0  0  0  0  0  0
   -3.0235    3.8065    0.0000 F   0  0  0  0  0  0  0  0  0  0  0  0
   -1.8872    4.0713    0.0000 F   0  0  0  0  0  0  0  0  0  0  0  0
    0.2216    3.2402    0.0000 C   0  0  0  0  0  0  0  0  0  0  0  0
   -0.0075    4.0328    0.0000 O   0  0  0  0  0  0  0  0  0  0  0  0
  1  2  1  0  0  0  0
  2  3  1  0  0  0  0
  3  4  2  0  0  0  0
  3  5  1  0  0  0  0
  5  6  1  0  0  0  0
  6  7  4  0  0  0  0
  7  8  4  0  0  0  0
  8  9  4  0  0  0  0
  9 10  4  0  0  0  0
 10 11  4  0  0  0  0
  6 11  4  0  0  0  0
 10 12  1  0  0  0  0
 12 13  1  0  0  0  0
 14 13  1  0  0  0  0
 14  9  1  0  0  0  0
 14 15  1  6  0  0  0
 15 16  1  0  0  0  0
 16 17  2  0  0  0  0
 16 18  1  0  0  0  0
 18 19  1  0  0  0  0
 19 20  1  0  0  0  0
 20 21  2  0  0  0  0
 20 22  1  0  0  0  0
 22 23  1  0  0  0  0
 23 24  1  0  0  0  0
 24 25  4  0  0  0  0
 25 26  4  0  0  0  0
 26 27  4  0  0  0  0
 27 28  4  0  0  0  0
 28 29  4  0  0  0  0
 24 29  4  0  0  0  0
 30 22  1  0  0  0  0
 30 31  1  1  0  0  0
 30 32  1  0  0  0  0
 32 33  1  0  0  0  0
 32 34  1  0  0  0  0
 32 35  1  0  0  0  0
 18 36  1  0  0  0  0
 14 36  1  0  0  0  0
 36 37  2  0  0  0  0
M  END
>  <CdId>
611

>  <Mol Weight>
518.493

>  <Formula>
C25H25F3N4O5

>  <Molecule ChEMBL ID>
CHEMBL4174931

>  <Molecule Max Phase>
None

>  <Molecular Weight>
518.49

>  <#RO5 Violations>
1

>  <AlogP>
3.54

>  <Compound Key>
24; A-485

>  <Standard Type>
IC50

>  <Standard Relation>
'='

>  <Standard Value>
990.0

>  <Standard Units>
nM

$$$$

  Mrv2114 03112311372D          

 56 63  0  0  1  0            999 V2000
    9.0681    5.2354    0.0000 C   0  0  0  0  0  0  0  0  0  0  0  0
    9.0681    4.4104    0.0000 C   0  0  0  0  0  0  0  0  0  0  0  0
    9.7825    3.9979    0.0000 C   0  0  0  0  0  0  0  0  0  0  0  0
    9.7825    3.1729    0.0000 C   0  0  0  0  0  0  0  0  0  0  0  0
   10.4970    2.7604    0.0000 C   0  0  0  0  0  0  0  0  0  0  0  0
   11.2115    3.1729    0.0000 C   0  0  1  0  0  0  0  0  0  0  0  0
   11.9259    2.7604    0.0000 N   0  0  0  0  0  0  0  0  0  0  0  0
   11.9259    1.9354    0.0000 C   0  0  0  0  0  0  0  0  0  0  0  0
   11.2115    1.5229    0.0000 O   0  0  0  0  0  0  0  0  0  0  0  0
   12.6404    1.5229    0.0000 N   0  0  0  0  0  0  0  0  0  0  0  0
   13.3549    1.9354    0.0000 C   0  0  0  0  0  0  0  0  0  0  0  0
   14.0693    1.5229    0.0000 C   0  0  0  0  0  0  0  0  0  0  0  0
   14.0693    0.6979    0.0000 C   0  0  0  0  0  0  0  0  0  0  0  0
   13.3549    0.2854    0.0000 C   0  0  0  0  0  0  0  0  0  0  0  0
   12.6404    0.6979    0.0000 C   0  0  0  0  0  0  0  0  0  0  0  0
   14.7838    1.1104    0.0000 O   0  0  0  0  0  0  0  0  0  0  0  0
   15.4983    0.6979    0.0000 C   0  0  0  0  0  0  0  0  0  0  0  0
   16.2128    1.1104    0.0000 O   0  0  0  0  0  0  0  0  0  0  0  0
   15.4983   -0.1271    0.0000 N   0  0  0  0  0  0  0  0  0  0  0  0
   14.7838   -0.5396    0.0000 C   0  0  0  0  0  0  0  0  0  0  0  0
   14.7838   -1.3646    0.0000 N   0  0  0  0  0  0  0  0  0  0  0  0
   14.0693   -1.7771    0.0000 C   0  0  0  0  0  0  0  0  0  0  0  0
   13.3549   -1.3646    0.0000 C   0  0  0  0  0  0  0  0  0  0  0  0
   13.3549   -0.5396    0.0000 C   0  0  0  0  0  0  0  0  0  0  0  0
   14.0693   -0.1271    0.0000 C   0  0  0  0  0  0  0  0  0  0  0  0
   11.2115    3.9979    0.0000 C   0  0  0  0  0  0  0  0  0  0  0  0
   12.0319    3.9117    0.0000 O   0  0  0  0  0  0  0  0  0  0  0  0
   10.4970    4.4104    0.0000 N   0  0  0  0  0  0  0  0  0  0  0  0
   10.4970    5.2354    0.0000 C   0  0  1  0  0  0  0  0  0  0  0  0
   11.2115    5.6479    0.0000 C   0  0  0  0  0  0  0  0  0  0  0  0
   11.9259    5.2354    0.0000 C   0  0  0  0  0  0  0  0  0  0  0  0
   12.6404    5.6479    0.0000 C   0  0  0  0  0  0  0  0  0  0  0  0
   13.3549    5.2354    0.0000 C   0  0  0  0  0  0  0  0  0  0  0  0
   13.3549    4.4104    0.0000 N   0  0  0  0  0  0  0  0  0  0  0  0
   12.6404    3.9979    0.0000 C   0  0  0  0  0  0  0  0  0  0  0  0
   11.9259    4.4104    0.0000 C   0  0  0  0  0  0  0  0  0  0  0  0
    9.7825    5.6479    0.0000 C   0  0  0  0  0  0  0  0  0  0  0  0
    8.9620    5.7342    0.0000 O   0  0  0  0  0  0  0  0  0  0  0  0
    9.7825    6.4729    0.0000 N   0  0  0  0  0  0  0  0  0  0  0  0
    9.0681    6.8854    0.0000 C   0  0  0  0  0  0  0  0  0  0  0  0
    9.0681    7.7104    0.0000 C   0  0  0  0  0  0  0  0  0  0  0  0
    9.7825    8.1229    0.0000 N   0  0  0  0  0  0  0  0  0  0  0  0
    9.7825    8.9479    0.0000 C   0  0  0  0  0  0  0  0  0  0  0  0
    9.0681    9.3604    0.0000 C   0  0  0  0  0  0  0  0  0  0  0  0
    9.0681   10.1854    0.0000 C   0  0  0  0  0  0  0  0  0  0  0  0
    9.7825   10.5979    0.0000 N   0  0  0  0  0  0  0  0  0  0  0  0
   10.4970   10.1854    0.0000 C   0  0  0  0  0  0  0  0  0  0  0  0
   10.4970    9.3604    0.0000 C   0  0  0  0  0  0  0  0  0  0  0  0
   10.4970    7.7104    0.0000 C   0  0  0  0  0  0  0  0  0  0  0  0
   10.4970    6.8854    0.0000 C   0  0  0  0  0  0  0  0  0  0  0  0
    9.0681    2.7604    0.0000 C   0  0  0  0  0  0  0  0  0  0  0  0
    8.3536    3.1729    0.0000 C   0  0  0  0  0  0  0  0  0  0  0  0
    7.5690    2.9180    0.0000 C   0  0  0  0  0  0  0  0  0  0  0  0
    7.0840    3.5854    0.0000 N   0  0  0  0  0  0  0  0  0  0  0  0
    7.5690    4.2529    0.0000 N   0  0  0  0  0  0  0  0  0  0  0  0
    8.3536    3.9979    0.0000 C   0  0  0  0  0  0  0  0  0  0  0  0
  1  2  1  0  0  0  0
  2  3  4  0  0  0  0
  3  4  4  0  0  0  0
  4  5  1  0  0  0  0
  6  5  1  0  0  0  0
  6  7  1  6  0  0  0
  7  8  1  0  0  0  0
  8  9  2  0  0  0  0
  8 10  1  0  0  0  0
 10 11  1  0  0  0  0
 11 12  1  0  0  0  0
 12 13  1  0  0  0  0
 13 14  1  0  0  0  0
 14 15  1  0  0  0  0
 10 15  1  0  0  0  0
 13 16  1  0  0  0  0
 16 17  1  0  0  0  0
 17 18  2  0  0  0  0
 17 19  1  0  0  0  0
 19 20  1  0  0  0  0
 20 21  4  0  0  0  0
 21 22  4  0  0  0  0
 22 23  4  0  0  0  0
 23 24  4  0  0  0  0
 24 25  4  0  0  0  0
 20 25  4  0  0  0  0
 13 25  1  0  0  0  0
  6 26  1  0  0  0  0
 26 27  2  0  0  0  0
 26 28  1  0  0  0  0
 29 28  1  6  0  0  0
 29 30  1  0  0  0  0
 30 31  1  0  0  0  0
 31 32  1  0  0  0  0
 32 33  1  0  0  0  0
 33 34  1  0  0  0  0
 34 35  1  0  0  0  0
 35 36  1  0  0  0  0
 31 36  1  0  0  0  0
 29 37  1  0  0  0  0
 37 38  2  0  0  0  0
 37 39  1  0  0  0  0
 39 40  1  0  0  0  0
 40 41  1  0  0  0  0
 41 42  1  0  0  0  0
 42 43  1  0  0  0  0
 43 44  4  0  0  0  0
 44 45  4  0  0  0  0
 45 46  4  0  0  0  0
 46 47  4  0  0  0  0
 47 48  4  0  0  0  0
 43 48  4  0  0  0  0
 42 49  1  0  0  0  0
 49 50  1  0  0  0  0
 39 50  1  0  0  0  0
  4 51  4  0  0  0  0
 51 52  4  0  0  0  0
 52 53  4  0  0  0  0
 53 54  4  0  0  0  0
 54 55  4  0  0  0  0
 55 56  4  0  0  0  0
  2 56  4  0  0  0  0
 52 56  4  0  0  0  0
M  STY  1   1 DAT
M  SAL   1  1  55
M  SDT   1 MRV_IMPLICIT_H                                        
M  SDD   1     0.0000    0.0000    DR    ALL  0       0  
M  SED   1 IMPL_H1
M  END
>  <CdId>
612

>  <Mol Weight>
763.904

>  <Formula>
C40H49N11O5

>  <Molecule ChEMBL ID>
CHEMBL4635331

>  <Molecule Name>
HTL-0022562

>  <Molecule Max Phase>
1

>  <Molecular Weight>
763.9

>  <#RO5 Violations>
1

>  <AlogP>
3.06

>  <Compound Key>
8; HTL22562

>  <Standard Type>
IC50

>  <Standard Relation>
'>'

>  <Standard Value>
50118.72

>  <Standard Units>
nM

$$$$

  Mrv2114 03112311372D          

 29 31  0  0  0  0            999 V2000
    5.7158    0.0000    0.0000 N   0  0  0  0  0  0  0  0  0  0  0  0
    5.7158   -0.8250    0.0000 C   0  0  0  0  0  0  0  0  0  0  0  0
    5.7158   -1.6500    0.0000 C   0  0  0  0  0  0  0  0  0  0  0  0
    6.4302   -2.0625    0.0000 C   0  0  0  0  0  0  0  0  0  0  0  0
    6.4302   -2.8875    0.0000 C   0  0  0  0  0  0  0  0  0  0  0  0
    5.7158   -3.3000    0.0000 C   0  0  0  0  0  0  0  0  0  0  0  0
    5.7158   -4.1250    0.0000 O   0  0  0  0  0  0  0  0  0  0  0  0
    5.0013   -4.5375    0.0000 C   0  0  0  0  0  0  0  0  0  0  0  0
    5.0013   -5.3625    0.0000 C   0  0  0  0  0  0  0  0  0  0  0  0
    4.2868   -5.7750    0.0000 C   0  0  0  0  0  0  0  0  0  0  0  0
    3.5724   -5.3625    0.0000 C   0  0  0  0  0  0  0  0  0  0  0  0
    2.8579   -5.7750    0.0000 S   0  0  0  0  0  0  0  0  0  0  0  0
    2.4454   -5.0605    0.0000 O   0  0  0  0  0  0  0  0  0  0  0  0
    3.2704   -6.4895    0.0000 O   0  0  0  0  0  0  0  0  0  0  0  0
    2.1434   -6.1875    0.0000 N   0  0  0  0  0  0  0  0  0  0  0  0
    1.4289   -5.7750    0.0000 C   0  0  0  0  0  0  0  0  0  0  0  0
    0.7145   -6.1875    0.0000 C   0  0  0  0  0  0  0  0  0  0  0  0
   -0.0000   -5.7750    0.0000 C   0  0  0  0  0  0  0  0  0  0  0  0
   -0.0000   -4.9500    0.0000 C   0  0  0  0  0  0  0  0  0  0  0  0
   -0.7145   -4.5375    0.0000 F   0  0  0  0  0  0  0  0  0  0  0  0
    0.7145   -4.5375    0.0000 C   0  0  0  0  0  0  0  0  0  0  0  0
    1.4289   -4.9500    0.0000 N   0  0  0  0  0  0  0  0  0  0  0  0
    3.5724   -4.5375    0.0000 C   0  0  0  0  0  0  0  0  0  0  0  0
    4.2868   -4.1250    0.0000 C   0  0  0  0  0  0  0  0  0  0  0  0
    4.2868   -3.3000    0.0000 C   0  0  0  0  0  0  0  0  0  0  0  0
    4.2868   -2.4750    0.0000 N   0  0  0  0  0  0  0  0  0  0  0  0
    5.0013   -2.8875    0.0000 C   0  0  0  0  0  0  0  0  0  0  0  0
    5.0013   -2.0625    0.0000 C   0  0  0  0  0  0  0  0  0  0  0  0
    4.2868   -1.6500    0.0000 Cl  0  0  0  0  0  0  0  0  0  0  0  0
  1  2  3  0  0  0  0
  2  3  1  0  0  0  0
  3  4  4  0  0  0  0
  4  5  4  0  0  0  0
  5  6  4  0  0  0  0
  6  7  1  0  0  0  0
  7  8  1  0  0  0  0
  8  9  4  0  0  0  0
  9 10  4  0  0  0  0
 10 11  4  0  0  0  0
 11 12  1  0  0  0  0
 12 13  2  0  0  0  0
 12 14  2  0  0  0  0
 12 15  1  0  0  0  0
 15 16  1  0  0  0  0
 16 17  4  0  0  0  0
 17 18  4  0  0  0  0
 18 19  4  0  0  0  0
 19 20  1  0  0  0  0
 19 21  4  0  0  0  0
 21 22  4  0  0  0  0
 16 22  4  0  0  0  0
 11 23  4  0  0  0  0
 23 24  4  0  0  0  0
  8 24  4  0  0  0  0
 24 25  1  0  0  0  0
 25 26  3  0  0  0  0
  6 27  4  0  0  0  0
 27 28  4  0  0  0  0
  3 28  4  0  0  0  0
 28 29  1  0  0  0  0
M  END
>  <CdId>
613

>  <Mol Weight>
428.82

>  <Formula>
C19H10ClFN4O3S

>  <Molecule ChEMBL ID>
CHEMBL3683287

>  <Molecule Max Phase>
None

>  <Molecular Weight>
428.83

>  <#RO5 Violations>
0

>  <AlogP>
4.21

>  <Compound Key>
10f

>  <Standard Type>
IC50

>  <Standard Relation>
'='

>  <Standard Value>
11900.0

>  <Standard Units>
nM

$$$$

  Mrv2114 03112311372D          

 30 31  0  0  1  0            999 V2000
    1.5915    0.9245    0.0000 C   0  0  0  0  0  0  0  0  0  0  0  0
    0.8770    1.3370    0.0000 C   0  0  1  0  0  0  0  0  0  0  0  0
    0.1626    0.9245    0.0000 N   0  0  0  0  0  0  0  0  0  0  0  0
    0.1626    0.0995    0.0000 C   0  0  1  0  0  0  0  0  0  0  0  0
    0.8300   -0.3855    0.0000 C   0  0  0  0  0  0  0  0  0  0  0  0
    0.5751   -1.1701    0.0000 C   0  0  0  0  0  0  0  0  0  0  0  0
   -0.2499   -1.1701    0.0000 N   0  0  0  0  0  0  0  0  0  0  0  0
   -0.7349   -1.8375    0.0000 C   0  0  0  0  0  0  0  0  0  0  0  0
   -0.3993   -2.5912    0.0000 C   0  0  0  0  0  0  0  0  0  0  0  0
   -0.8842   -3.2586    0.0000 C   0  0  0  0  0  0  0  0  0  0  0  0
   -1.7047   -3.1724    0.0000 C   0  0  0  0  0  0  0  0  0  0  0  0
   -2.1896   -3.8398    0.0000 C   0  0  0  0  0  0  0  0  0  0  0  0
   -3.0101   -3.7536    0.0000 C   0  0  0  0  0  0  0  0  0  0  0  0
   -3.4950   -4.4210    0.0000 O   0  0  0  0  0  0  0  0  0  0  0  0
   -3.3457   -2.9999    0.0000 O   0  0  0  0  0  0  0  0  0  0  0  0
   -2.0403   -2.4187    0.0000 C   0  0  0  0  0  0  0  0  0  0  0  0
   -1.5553   -1.7513    0.0000 C   0  0  0  0  0  0  0  0  0  0  0  0
   -0.5049   -0.3855    0.0000 C   0  0  0  0  0  0  0  0  0  0  0  0
    0.8770    2.1620    0.0000 C   0  0  0  0  0  0  0  0  0  0  0  0
    0.1626    2.5745    0.0000 C   0  0  0  0  0  0  0  0  0  0  0  0
    0.1626    3.3995    0.0000 C   0  0  0  0  0  0  0  0  0  0  0  0
    0.8770    3.8120    0.0000 C   0  0  0  0  0  0  0  0  0  0  0  0
    1.5915    3.3995    0.0000 C   0  0  0  0  0  0  0  0  0  0  0  0
    2.3060    3.8120    0.0000 C   0  0  0  0  0  0  0  0  0  0  0  0
    3.0205    3.3995    0.0000 C   0  0  0  0  0  0  0  0  0  0  0  0
    3.0205    2.5745    0.0000 C   0  0  0  0  0  0  0  0  0  0  0  0
    2.3060    2.1620    0.0000 C   0  0  0  0  0  0  0  0  0  0  0  0
    1.5915    2.5745    0.0000 C   0  0  0  0  0  0  0  0  0  0  0  0
    5.0240    0.0000    0.0000 Cl  0  0  0  0  0  0  0  0  0  0  0  0
    0.0000   -6.0710    0.0000 Cl  0  0  0  0  0  0  0  0  0  0  0  0
  2  1  1  1  0  0  0
  2  3  1  0  0  0  0
  4  3  1  1  0  0  0
  4  5  1  0  0  0  0
  5  6  1  0  0  0  0
  6  7  1  0  0  0  0
  7  8  1  0  0  0  0
  8  9  4  0  0  0  0
  9 10  4  0  0  0  0
 10 11  4  0  0  0  0
 11 12  1  0  0  0  0
 12 13  1  0  0  0  0
 13 14  2  0  0  0  0
 13 15  1  0  0  0  0
 11 16  4  0  0  0  0
 16 17  4  0  0  0  0
  8 17  4  0  0  0  0
  7 18  1  0  0  0  0
  4 18  1  0  0  0  0
  2 19  1  0  0  0  0
 19 20  4  0  0  0  0
 20 21  4  0  0  0  0
 21 22  4  0  0  0  0
 22 23  4  0  0  0  0
 23 24  4  0  0  0  0
 24 25  4  0  0  0  0
 25 26  4  0  0  0  0
 26 27  4  0  0  0  0
 27 28  4  0  0  0  0
 19 28  4  0  0  0  0
 23 28  4  0  0  0  0
M  END
>  <CdId>
614

>  <Mol Weight>
447.4

>  <Formula>
C24H28Cl2N2O2

>  <Molecule ChEMBL ID>
CHEMBL4128835

>  <Molecule Max Phase>
None

>  <Molecular Weight>
447.41

>  <#RO5 Violations>
0

>  <AlogP>
4.4

>  <Compound Key>
16

>  <Standard Type>
IC50

>  <Standard Relation>
'>'

>  <Standard Value>
50000.0

>  <Standard Units>
nM

$$$$

  Mrv2114 03112311372D          

 32 36  0  0  0  0            999 V2000
    7.4570    2.5559    0.0000 N   0  0  0  0  0  0  0  0  0  0  0  0
    7.8695    1.8414    0.0000 C   0  0  0  0  0  0  0  0  0  0  0  0
    8.6945    1.8414    0.0000 C   0  0  0  0  0  0  0  0  0  0  0  0
    9.1070    1.1270    0.0000 C   0  0  0  0  0  0  0  0  0  0  0  0
    8.6945    0.4125    0.0000 C   0  0  0  0  0  0  0  0  0  0  0  0
    9.1070   -0.3020    0.0000 C   0  0  0  0  0  0  0  0  0  0  0  0
    9.9275   -0.3882    0.0000 C   0  0  0  0  0  0  0  0  0  0  0  0
   10.0991   -1.1952    0.0000 C   0  0  0  0  0  0  0  0  0  0  0  0
    9.3846   -1.6077    0.0000 C   0  0  0  0  0  0  0  0  0  0  0  0
    8.7715   -1.0556    0.0000 S   0  0  0  0  0  0  0  0  0  0  0  0
    7.8695    0.4125    0.0000 C   0  0  0  0  0  0  0  0  0  0  0  0
    7.4570    1.1270    0.0000 C   0  0  0  0  0  0  0  0  0  0  0  0
    6.6320    1.1270    0.0000 N   0  0  0  0  0  0  0  0  0  0  0  0
    6.2195    0.4125    0.0000 C   0  0  0  0  0  0  0  0  0  0  0  0
    6.6320   -0.3020    0.0000 O   0  0  0  0  0  0  0  0  0  0  0  0
    5.3945    0.4125    0.0000 C   0  0  0  0  0  0  0  0  0  0  0  0
    4.9820   -0.3020    0.0000 C   0  0  0  0  0  0  0  0  0  0  0  0
    4.1570   -0.3020    0.0000 C   0  0  0  0  0  0  0  0  0  0  0  0
    3.7445    0.4125    0.0000 C   0  0  0  0  0  0  0  0  0  0  0  0
    2.9195    0.4125    0.0000 N   0  0  0  0  0  0  0  0  0  0  0  0
    2.5070   -0.3020    0.0000 C   0  0  0  0  0  0  0  0  0  0  0  0
    1.6820   -0.3020    0.0000 C   0  0  0  0  0  0  0  0  0  0  0  0
    1.2695    0.4125    0.0000 C   0  0  0  0  0  0  0  0  0  0  0  0
    1.6820    1.1270    0.0000 C   0  0  0  0  0  0  0  0  0  0  0  0
    2.5070    1.1270    0.0000 C   0  0  0  0  0  0  0  0  0  0  0  0
    0.7846   -0.2549    0.0000 C   0  0  0  0  0  0  0  0  0  0  0  0
    0.0000   -0.0000    0.0000 N   0  0  0  0  0  0  0  0  0  0  0  0
   -0.0000    0.8250    0.0000 C   0  0  0  0  0  0  0  0  0  0  0  0
   -0.6674    1.3099    0.0000 O   0  0  0  0  0  0  0  0  0  0  0  0
    0.7846    1.0799    0.0000 O   0  0  0  0  0  0  0  0  0  0  0  0
    4.1570    1.1270    0.0000 N   0  0  0  0  0  0  0  0  0  0  0  0
    4.9820    1.1270    0.0000 C   0  0  0  0  0  0  0  0  0  0  0  0
  1  2  1  0  0  0  0
  2  3  4  0  0  0  0
  3  4  4  0  0  0  0
  4  5  4  0  0  0  0
  5  6  1  0  0  0  0
  6  7  4  0  0  0  0
  7  8  4  0  0  0  0
  8  9  4  0  0  0  0
  9 10  4  0  0  0  0
  6 10  4  0  0  0  0
  5 11  4  0  0  0  0
 11 12  4  0  0  0  0
  2 12  4  0  0  0  0
 12 13  1  0  0  0  0
 13 14  1  0  0  0  0
 14 15  2  0  0  0  0
 14 16  1  0  0  0  0
 16 17  4  0  0  0  0
 17 18  4  0  0  0  0
 18 19  4  0  0  0  0
 19 20  1  0  0  0  0
 20 21  1  0  0  0  0
 21 22  1  0  0  0  0
 22 23  1  0  0  0  0
 23 24  1  0  0  0  0
 24 25  1  0  0  0  0
 20 25  1  0  0  0  0
 23 26  1  0  0  0  0
 26 27  1  0  0  0  0
 27 28  1  0  0  0  0
 28 29  2  0  0  0  0
 28 30  1  0  0  0  0
 23 30  1  0  0  0  0
 19 31  4  0  0  0  0
 31 32  4  0  0  0  0
 16 32  4  0  0  0  0
M  END
>  <CdId>
615

>  <Mol Weight>
449.53

>  <Formula>
C23H23N5O3S

>  <Molecule ChEMBL ID>
CHEMBL3286732

>  <Molecule Max Phase>
None

>  <Molecular Weight>
449.54

>  <#RO5 Violations>
0

>  <AlogP>
3.72

>  <Compound Key>
2

>  <Standard Type>
IC50

>  <Standard Relation>
'>'

>  <Standard Value>
10000.0

>  <Standard Units>
nM

$$$$

  Mrv2114 03112311372D          

 41 45  0  0  1  0            999 V2000
   -1.4289   -8.2500    0.0000 C   0  0  0  0  0  0  0  0  0  0  0  0
   -2.1434   -7.8375    0.0000 C   0  0  0  0  0  0  0  0  0  0  0  0
   -1.7309   -7.1230    0.0000 C   0  0  0  0  0  0  0  0  0  0  0  0
   -2.5559   -8.5520    0.0000 O   0  0  0  0  0  0  0  0  0  0  0  0
   -2.8579   -7.4250    0.0000 C   0  0  0  0  0  0  0  0  0  0  0  0
   -3.5724   -7.8375    0.0000 C   0  0  0  0  0  0  0  0  0  0  0  0
   -4.2868   -7.4250    0.0000 C   0  0  0  0  0  0  0  0  0  0  0  0
   -4.2868   -6.6000    0.0000 C   0  0  0  0  0  0  0  0  0  0  0  0
   -3.5724   -6.1875    0.0000 C   0  0  0  0  0  0  0  0  0  0  0  0
   -2.8579   -6.6000    0.0000 C   0  0  0  0  0  0  0  0  0  0  0  0
   -2.1434   -6.1875    0.0000 C   0  0  0  0  0  0  0  0  0  0  0  0
   -2.1434   -5.3625    0.0000 C   0  0  0  0  0  0  0  0  0  0  0  0
   -1.4289   -4.9500    0.0000 C   0  0  1  0  0  0  0  0  0  0  0  0
   -0.7145   -5.3625    0.0000 S   0  0  0  0  0  0  0  0  0  0  0  0
    0.0000   -4.9500    0.0000 C   0  0  0  0  0  0  0  0  0  0  0  0
    0.7145   -5.3625    0.0000 C   0  0  0  0  0  0  0  0  0  0  0  0
    0.4323   -6.1377    0.0000 C   0  0  0  0  0  0  0  0  0  0  0  0
    0.9626   -6.7697    0.0000 C   0  0  0  0  0  0  0  0  0  0  0  0
    1.7751   -6.6265    0.0000 O   0  0  0  0  0  0  0  0  0  0  0  0
    0.6804   -7.5450    0.0000 O   0  0  0  0  0  0  0  0  0  0  0  0
    1.2448   -4.7305    0.0000 C   0  0  0  0  0  0  0  0  0  0  0  0
    1.5269   -5.5058    0.0000 C   0  0  0  0  0  0  0  0  0  0  0  0
   -1.4289   -4.1250    0.0000 C   0  0  0  0  0  0  0  0  0  0  0  0
   -2.1434   -3.7125    0.0000 C   0  0  0  0  0  0  0  0  0  0  0  0
   -2.1434   -2.8875    0.0000 C   0  0  0  0  0  0  0  0  0  0  0  0
   -1.4289   -2.4750    0.0000 C   0  0  0  0  0  0  0  0  0  0  0  0
   -0.7145   -2.8875    0.0000 C   0  0  0  0  0  0  0  0  0  0  0  0
    0.0000   -2.4750    0.0000 C   0  0  0  0  0  0  0  0  0  0  0  0
    0.0000   -1.6500    0.0000 C   0  0  0  0  0  0  0  0  0  0  0  0
    0.7145   -1.2375    0.0000 C   0  0  0  0  0  0  0  0  0  0  0  0
    0.7145   -0.4125    0.0000 C   0  0  0  0  0  0  0  0  0  0  0  0
    1.4289    0.0000    0.0000 C   0  0  0  0  0  0  0  0  0  0  0  0
    2.1434   -0.4125    0.0000 C   0  0  0  0  0  0  0  0  0  0  0  0
    2.8579    0.0000    0.0000 C   0  0  0  0  0  0  0  0  0  0  0  0
    3.5724   -0.4125    0.0000 C   0  0  0  0  0  0  0  0  0  0  0  0
    3.5724   -1.2375    0.0000 C   0  0  0  0  0  0  0  0  0  0  0  0
    4.2868   -1.6500    0.0000 Cl  0  0  0  0  0  0  0  0  0  0  0  0
    2.8579   -1.6500    0.0000 C   0  0  0  0  0  0  0  0  0  0  0  0
    2.1434   -1.2375    0.0000 C   0  0  0  0  0  0  0  0  0  0  0  0
    1.4289   -1.6500    0.0000 N   0  0  0  0  0  0  0  0  0  0  0  0
   -0.7145   -3.7125    0.0000 C   0  0  0  0  0  0  0  0  0  0  0  0
  1  2  1  0  0  0  0
  2  3  1  0  0  0  0
  2  4  1  0  0  0  0
  2  5  1  0  0  0  0
  5  6  4  0  0  0  0
  6  7  4  0  0  0  0
  7  8  4  0  0  0  0
  8  9  4  0  0  0  0
  9 10  4  0  0  0  0
  5 10  4  0  0  0  0
 10 11  1  0  0  0  0
 11 12  1  0  0  0  0
 13 12  1  0  0  0  0
 13 14  1  6  0  0  0
 14 15  1  0  0  0  0
 15 16  1  0  0  0  0
 16 17  1  0  0  0  0
 17 18  1  0  0  0  0
 18 19  2  0  0  0  0
 18 20  1  0  0  0  0
 16 21  1  0  0  0  0
 21 22  1  0  0  0  0
 16 22  1  0  0  0  0
 13 23  1  0  0  0  0
 23 24  4  0  0  0  0
 24 25  4  0  0  0  0
 25 26  4  0  0  0  0
 26 27  4  0  0  0  0
 27 28  1  0  0  0  0
 28 29  2  0  0  0  0
 29 30  1  0  0  0  0
 30 31  4  0  0  0  0
 31 32  4  0  0  0  0
 32 33  4  0  0  0  0
 33 34  4  0  0  0  0
 34 35  4  0  0  0  0
 35 36  4  0  0  0  0
 36 37  1  0  0  0  0
 36 38  4  0  0  0  0
 38 39  4  0  0  0  0
 33 39  4  0  0  0  0
 39 40  4  0  0  0  0
 30 40  4  0  0  0  0
 27 41  4  0  0  0  0
 23 41  4  0  0  0  0
M  END
>  <CdId>
616

>  <Mol Weight>
586.19

>  <Formula>
C35H36ClNO3S

>  <Molecule ChEMBL ID>
CHEMBL787

>  <Molecule Name>
MONTELUKAST

>  <Molecule Max Phase>
4

>  <Molecular Weight>
586.2

>  <#RO5 Violations>
2

>  <AlogP>
8.95

>  <Compound Key>
Montelukast

>  <Standard Type>
IC50

>  <Standard Relation>
'='

>  <Standard Value>
1270.0

>  <Standard Units>
nM

$$$$

  Mrv2114 03112311372D          

 34 37  0  0  1  0            999 V2000
    0.7145   -2.8875    0.0000 C   0  0  0  0  0  0  0  0  0  0  0  0
    0.7145   -2.0625    0.0000 C   0  0  2  0  0  0  0  0  0  0  0  0
    1.4289   -1.6500    0.0000 C   0  0  0  0  0  0  0  0  0  0  0  0
    2.1434   -2.0625    0.0000 N   0  0  0  0  0  0  0  0  0  0  0  0
    2.8579   -1.6500    0.0000 C   0  0  1  0  0  0  0  0  0  0  0  0
    3.5724   -2.0625    0.0000 C   0  0  0  0  0  0  0  0  0  0  0  0
    3.5724   -2.8875    0.0000 O   0  0  0  0  0  0  0  0  0  0  0  0
    4.2868   -1.6500    0.0000 N   0  0  0  0  0  0  0  0  0  0  0  0
    5.0013   -2.0625    0.0000 C   0  0  0  0  0  0  0  0  0  0  0  0
    5.7158   -1.6500    0.0000 C   0  0  0  0  0  0  0  0  0  0  0  0
    6.4302   -2.0625    0.0000 C   0  0  0  0  0  0  0  0  0  0  0  0
    6.4302   -2.8875    0.0000 C   0  0  0  0  0  0  0  0  0  0  0  0
    7.1447   -3.3000    0.0000 C   0  0  0  0  0  0  0  0  0  0  0  0
    7.8984   -2.9644    0.0000 C   0  0  0  0  0  0  0  0  0  0  0  0
    8.4504   -3.5775    0.0000 N   0  0  0  0  0  0  0  0  0  0  0  0
    8.0379   -4.2920    0.0000 N   0  0  0  0  0  0  0  0  0  0  0  0
    8.3735   -5.0457    0.0000 C   0  0  0  0  0  0  0  0  0  0  0  0
    7.2309   -4.1205    0.0000 C   0  0  0  0  0  0  0  0  0  0  0  0
    5.7158   -3.3000    0.0000 C   0  0  0  0  0  0  0  0  0  0  0  0
    5.0013   -2.8875    0.0000 N   0  0  0  0  0  0  0  0  0  0  0  0
    2.8579   -0.8250    0.0000 C   0  0  0  0  0  0  0  0  0  0  0  0
    2.1434   -0.4125    0.0000 C   0  0  0  0  0  0  0  0  0  0  0  0
    2.1434    0.4125    0.0000 C   0  0  0  0  0  0  0  0  0  0  0  0
    2.8579    0.8250    0.0000 C   0  0  0  0  0  0  0  0  0  0  0  0
    3.5724    0.4125    0.0000 C   0  0  0  0  0  0  0  0  0  0  0  0
    3.5724   -0.4125    0.0000 C   0  0  0  0  0  0  0  0  0  0  0  0
    0.0000   -1.6500    0.0000 C   0  0  0  0  0  0  0  0  0  0  0  0
   -0.7145   -2.0625    0.0000 C   0  0  0  0  0  0  0  0  0  0  0  0
   -1.4289   -1.6500    0.0000 C   0  0  0  0  0  0  0  0  0  0  0  0
   -1.4289   -0.8250    0.0000 C   0  0  0  0  0  0  0  0  0  0  0  0
   -2.1434   -0.4125    0.0000 C   0  0  0  0  0  0  0  0  0  0  0  0
   -2.8579   -0.0000    0.0000 N   0  0  0  0  0  0  0  0  0  0  0  0
   -0.7145   -0.4125    0.0000 C   0  0  0  0  0  0  0  0  0  0  0  0
    0.0000   -0.8250    0.0000 C   0  0  0  0  0  0  0  0  0  0  0  0
  2  1  1  1  0  0  0
  2  3  1  0  0  0  0
  3  4  1  0  0  0  0
  5  4  1  6  0  0  0
  5  6  1  0  0  0  0
  6  7  2  0  0  0  0
  6  8  1  0  0  0  0
  8  9  1  0  0  0  0
  9 10  4  0  0  0  0
 10 11  4  0  0  0  0
 11 12  4  0  0  0  0
 12 13  1  0  0  0  0
 13 14  4  0  0  0  0
 14 15  4  0  0  0  0
 15 16  4  0  0  0  0
 16 17  1  0  0  0  0
 16 18  4  0  0  0  0
 13 18  4  0  0  0  0
 12 19  4  0  0  0  0
 19 20  4  0  0  0  0
  9 20  4  0  0  0  0
  5 21  1  0  0  0  0
 21 22  4  0  0  0  0
 22 23  4  0  0  0  0
 23 24  4  0  0  0  0
 24 25  4  0  0  0  0
 25 26  4  0  0  0  0
 21 26  4  0  0  0  0
  2 27  1  0  0  0  0
 27 28  4  0  0  0  0
 28 29  4  0  0  0  0
 29 30  4  0  0  0  0
 30 31  1  0  0  0  0
 31 32  3  0  0  0  0
 30 33  4  0  0  0  0
 33 34  4  0  0  0  0
 27 34  4  0  0  0  0
M  END
>  <CdId>
617

>  <Mol Weight>
450.546

>  <Formula>
C27H26N6O

>  <Molecule ChEMBL ID>
CHEMBL4641354

>  <Molecule Max Phase>
None

>  <Molecular Weight>
450.55

>  <#RO5 Violations>
0

>  <AlogP>
4.43

>  <Compound Key>
17; CPI-1612

>  <Standard Type>
IC50

>  <Standard Relation>
'='

>  <Standard Value>
1900.0

>  <Standard Units>
nM

$$$$

  Mrv2114 03112311372D          

 24 28  0  0  1  0            999 V2000
    2.3740   -3.6960    0.0000 N   0  0  0  0  0  0  0  0  0  0  0  0
    1.5894   -3.9509    0.0000 C   0  0  0  0  0  0  0  0  0  0  0  0
    0.8048   -4.2059    0.0000 C   0  0  2  0  0  0  0  0  0  0  0  0
    0.5499   -4.9906    0.0000 C   0  0  0  0  0  0  0  0  0  0  0  0
   -0.2751   -4.9906    0.0000 C   0  0  2  0  0  0  0  0  0  0  0  0
   -1.0821   -4.8191    0.0000 C   0  0  0  0  0  0  0  0  0  0  0  0
   -0.5301   -4.2060    0.0000 C   0  0  2  0  0  0  0  0  0  0  0  0
    0.1373   -3.7210    0.0000 N   0  0  0  0  0  0  0  0  0  0  0  0
    0.1373   -2.8960    0.0000 C   0  0  0  0  0  0  0  0  0  0  0  0
   -0.5772   -2.4836    0.0000 O   0  0  0  0  0  0  0  0  0  0  0  0
    0.8517   -2.4835    0.0000 C   0  0  1  0  0  0  0  0  0  0  0  0
    1.5662   -2.8960    0.0000 N   0  0  0  0  0  0  0  0  0  0  0  0
    0.8517   -1.6585    0.0000 C   0  0  0  0  0  0  0  0  0  0  0  0
    0.1163   -2.0322    0.0000 C   0  0  0  0  0  0  0  0  0  0  0  0
    0.5657   -1.2419    0.0000 C   0  0  0  0  0  0  0  0  0  0  0  0
    0.5657   -0.4945    0.0000 C   0  0  0  0  0  0  0  0  0  0  0  0
    1.3012   -0.1208    0.0000 C   0  0  0  0  0  0  0  0  0  0  0  0
    1.3012    0.7042    0.0000 O   0  0  0  0  0  0  0  0  0  0  0  0
    2.0368   -0.4945    0.0000 C   0  0  0  0  0  0  0  0  0  0  0  0
    2.0368   -1.2419    0.0000 C   0  0  0  0  0  0  0  0  0  0  0  0
    2.8344   -1.4529    0.0000 O   0  0  0  0  0  0  0  0  0  0  0  0
    1.3012   -1.6156    0.0000 C   0  0  0  0  0  0  0  0  0  0  0  0
    1.5873   -2.0322    0.0000 C   0  0  0  0  0  0  0  0  0  0  0  0
    0.8517   -0.9111    0.0000 C   0  0  0  0  0  0  0  0  0  0  0  0
  1  2  3  0  0  0  0
  3  2  1  6  0  0  0
  3  4  1  0  0  0  0
  5  4  1  0  0  0  0
  5  6  1  6  0  0  0
  7  6  1  6  0  0  0
  5  7  1  0  0  0  0
  7  8  1  0  0  0  0
  3  8  1  0  0  0  0
  8  9  1  0  0  0  0
  9 10  2  0  0  0  0
 11  9  1  0  0  0  0
 11 12  1  6  0  0  0
 11 13  1  0  0  0  0
 13 14  1  0  0  0  0
 14 15  1  0  0  0  0
 17 24  1  0  0  0  0
 16 17  1  0  0  0  0
 17 18  1  0  0  0  0
 17 19  1  0  0  0  0
 13 23  1  0  0  0  0
 20 21  1  0  0  0  0
 20 22  1  0  0  0  0
 15 22  1  0  0  0  0
 20 23  1  0  0  0  0
 19 20  1  0  0  0  0
 15 16  1  0  0  0  0
 13 24  1  0  0  0  0
M  END
>  <CdId>
618

>  <Mol Weight>
331.416

>  <Formula>
C18H25N3O3

>  <Molecule ChEMBL ID>
CHEMBL3350936

>  <Molecule Max Phase>
None

>  <Molecular Weight>
331.42

>  <#RO5 Violations>
0

>  <AlogP>
0.27

>  <Compound Key>
M2

>  <Standard Type>
IC50

>  <Standard Relation>
'>'

>  <Standard Value>
200000.0

>  <Standard Units>
nM

$$$$

  Mrv2114 03112311372D          

 39 45  0  0  0  0            999 V2000
    0.0000   -2.4750    0.0000 O   0  0  0  0  0  0  0  0  0  0  0  0
    0.0000   -1.6500    0.0000 C   0  0  0  0  0  0  0  0  0  0  0  0
   -0.7145   -1.2375    0.0000 O   0  0  0  0  0  0  0  0  0  0  0  0
    0.7145   -1.2375    0.0000 C   0  0  0  0  0  0  0  0  0  0  0  0
    0.7145   -0.4125    0.0000 C   0  0  0  0  0  0  0  0  0  0  0  0
    1.4289    0.0000    0.0000 C   0  0  0  0  0  0  0  0  0  0  0  0
    2.1434   -0.4125    0.0000 C   0  0  0  0  0  0  0  0  0  0  0  0
    2.8579    0.0000    0.0000 C   0  0  0  0  0  0  0  0  0  0  0  0
    3.5724   -0.4125    0.0000 C   0  0  0  0  0  0  0  0  0  0  0  0
    4.2868   -0.0000    0.0000 N   0  0  0  0  0  0  0  0  0  0  0  0
    4.2868    0.8250    0.0000 C   0  0  0  0  0  0  0  0  0  0  0  0
    5.0013    1.2375    0.0000 C   0  0  0  0  0  0  0  0  0  0  0  0
    5.7158    0.8250    0.0000 C   0  0  0  0  0  0  0  0  0  0  0  0
    5.9293    1.6219    0.0000 C   0  0  0  0  0  0  0  0  0  0  0  0
    6.7262    1.4084    0.0000 C   0  0  0  0  0  0  0  0  0  0  0  0
    7.4407    1.8209    0.0000 C   0  0  0  0  0  0  0  0  0  0  0  0
    7.5269    2.6413    0.0000 C   0  0  0  0  0  0  0  0  0  0  0  0
    6.9138    3.1934    0.0000 C   0  0  0  0  0  0  0  0  0  0  0  0
    6.1292    2.9384    0.0000 C   0  0  0  0  0  0  0  0  0  0  0  0
    5.9576    2.1315    0.0000 Cl  0  0  0  0  0  0  0  0  0  0  0  0
    5.5161    3.4905    0.0000 C   0  0  0  0  0  0  0  0  0  0  0  0
    5.6876    4.2974    0.0000 C   0  0  0  0  0  0  0  0  0  0  0  0
    5.0745    4.8495    0.0000 F   0  0  0  0  0  0  0  0  0  0  0  0
    6.4722    4.5524    0.0000 C   0  0  0  0  0  0  0  0  0  0  0  0
    7.0853    4.0003    0.0000 C   0  0  0  0  0  0  0  0  0  0  0  0
    7.8699    4.2553    0.0000 Cl  0  0  0  0  0  0  0  0  0  0  0  0
    8.3339    2.8129    0.0000 N   0  0  0  0  0  0  0  0  0  0  0  0
    8.7464    2.0984    0.0000 O   0  0  0  0  0  0  0  0  0  0  0  0
    8.1943    1.4853    0.0000 C   0  0  0  0  0  0  0  0  0  0  0  0
    8.3659    0.6783    0.0000 C   0  0  0  0  0  0  0  0  0  0  0  0
    8.9179    0.0652    0.0000 C   0  0  0  0  0  0  0  0  0  0  0  0
    8.1109   -0.1063    0.0000 C   0  0  0  0  0  0  0  0  0  0  0  0
    6.5127    0.6115    0.0000 C   0  0  0  0  0  0  0  0  0  0  0  0
    5.7158   -0.0000    0.0000 C   0  0  0  0  0  0  0  0  0  0  0  0
    5.0013   -0.4125    0.0000 C   0  0  0  0  0  0  0  0  0  0  0  0
    3.5724   -1.2375    0.0000 C   0  0  0  0  0  0  0  0  0  0  0  0
    2.8579   -1.6500    0.0000 C   0  0  0  0  0  0  0  0  0  0  0  0
    2.1434   -1.2375    0.0000 C   0  0  0  0  0  0  0  0  0  0  0  0
    1.4289   -1.6500    0.0000 N   0  0  0  0  0  0  0  0  0  0  0  0
  1  2  2  0  0  0  0
  2  3  1  0  0  0  0
  2  4  1  0  0  0  0
  4  5  4  0  0  0  0
  5  6  4  0  0  0  0
  6  7  4  0  0  0  0
  7  8  4  0  0  0  0
  8  9  4  0  0  0  0
  9 10  1  0  0  0  0
 10 11  1  0  0  0  0
 11 12  1  0  0  0  0
 12 13  1  0  0  0  0
 13 14  1  0  0  0  0
 14 15  2  0  0  0  0
 15 16  1  0  0  0  0
 16 17  4  0  0  0  0
 17 18  1  0  0  0  0
 18 19  4  0  0  0  0
 19 20  1  0  0  0  0
 19 21  4  0  0  0  0
 21 22  4  0  0  0  0
 22 23  1  0  0  0  0
 22 24  4  0  0  0  0
 24 25  4  0  0  0  0
 18 25  4  0  0  0  0
 25 26  1  0  0  0  0
 17 27  4  0  0  0  0
 27 28  4  0  0  0  0
 28 29  4  0  0  0  0
 16 29  4  0  0  0  0
 29 30  1  0  0  0  0
 30 31  1  0  0  0  0
 31 32  1  0  0  0  0
 30 32  1  0  0  0  0
 15 33  1  0  0  0  0
 13 33  1  0  0  0  0
 13 34  1  0  0  0  0
 34 35  1  0  0  0  0
 10 35  1  0  0  0  0
  9 36  4  0  0  0  0
 36 37  4  0  0  0  0
 37 38  4  0  0  0  0
  7 38  4  0  0  0  0
 38 39  4  0  0  0  0
  4 39  4  0  0  0  0
M  END
>  <CdId>
619

>  <Mol Weight>
564.44

>  <Formula>
C30H24Cl2FN3O3

>  <Molecule ChEMBL ID>
CHEMBL4868096

>  <Molecule Max Phase>
None

>  <Molecular Weight>
564.44

>  <#RO5 Violations>
2

>  <AlogP>
7.99

>  <Compound Key>
17

>  <Standard Type>
IC50

>  <Standard Relation>
'='

>  <Standard Value>
8200.0

>  <Standard Units>
nM

$$$$

  Mrv2114 03112311372D          

161167  0  0  1  0            999 V2000
   -6.9020  -26.9329    0.0000 C   0  0  0  0  0  0  0  0  0  0  0  0
   -6.2889  -27.4849    0.0000 C   0  0  0  0  0  0  0  0  0  0  0  0
   -5.5042  -27.2300    0.0000 C   0  0  2  0  0  0  0  0  0  0  0  0
   -4.8912  -27.7820    0.0000 C   0  0  0  0  0  0  0  0  0  0  0  0
   -5.3327  -26.4230    0.0000 C   0  0  1  0  0  0  0  0  0  0  0  0
   -4.5481  -26.1681    0.0000 C   0  0  1  0  0  0  0  0  0  0  0  0
   -3.9350  -26.7201    0.0000 C   0  0  0  0  0  0  0  0  0  0  0  0
   -3.1504  -26.4652    0.0000 C   0  0  0  0  0  0  0  0  0  0  0  0
   -2.9789  -25.6582    0.0000 O   0  0  0  0  0  0  0  0  0  0  0  0
   -2.5373  -27.0172    0.0000 N   0  0  0  0  0  0  0  0  0  0  0  0
   -1.7303  -26.8457    0.0000 C   0  0  0  0  0  0  0  0  0  0  0  0
   -1.3178  -27.5602    0.0000 C   0  0  0  0  0  0  0  0  0  0  0  0
   -1.8698  -28.1733    0.0000 C   0  0  0  0  0  0  0  0  0  0  0  0
   -2.6235  -27.8377    0.0000 C   0  0  1  0  0  0  0  0  0  0  0  0
   -3.3380  -28.2502    0.0000 C   0  0  2  0  0  0  0  0  0  0  0  0
   -4.0525  -27.8377    0.0000 O   0  0  0  0  0  0  0  0  0  0  0  0
   -4.7669  -28.2502    0.0000 C   0  0  0  0  0  0  0  0  0  0  0  0
   -3.3380  -29.0752    0.0000 C   0  0  1  0  0  0  0  0  0  0  0  0
   -2.6235  -29.4877    0.0000 C   0  0  0  0  0  0  0  0  0  0  0  0
   -4.0525  -29.4877    0.0000 C   0  0  0  0  0  0  0  0  0  0  0  0
   -4.7669  -29.0752    0.0000 O   0  0  0  0  0  0  0  0  0  0  0  0
   -4.0525  -30.3127    0.0000 N   0  0  0  0  0  0  0  0  0  0  0  0
   -4.7669  -30.7252    0.0000 C   0  0  2  0  0  0  0  0  0  0  0  0
   -5.4814  -30.3127    0.0000 C   0  0  0  0  0  0  0  0  0  0  0  0
   -4.7669  -31.5502    0.0000 C   0  0  1  0  0  0  0  0  0  0  0  0
   -4.0525  -31.9627    0.0000 O   0  0  0  0  0  0  0  0  0  0  0  0
   -5.4814  -31.9627    0.0000 C   0  0  0  0  0  0  0  0  0  0  0  0
   -5.4814  -32.7877    0.0000 C   0  0  0  0  0  0  0  0  0  0  0  0
   -6.1959  -33.2002    0.0000 C   0  0  0  0  0  0  0  0  0  0  0  0
   -6.9104  -32.7877    0.0000 C   0  0  0  0  0  0  0  0  0  0  0  0
   -6.9104  -31.9627    0.0000 C   0  0  0  0  0  0  0  0  0  0  0  0
   -6.1959  -31.5502    0.0000 C   0  0  0  0  0  0  0  0  0  0  0  0
   -4.3766  -25.3611    0.0000 O   0  0  0  0  0  0  0  0  0  0  0  0
   -3.5920  -25.1062    0.0000 C   0  0  0  0  0  0  0  0  0  0  0  0
   -5.9458  -25.8710    0.0000 N   0  0  0  0  0  0  0  0  0  0  0  0
   -6.7304  -26.1259    0.0000 C   0  0  0  0  0  0  0  0  0  0  0  0
   -5.7743  -25.0640    0.0000 C   0  0  0  0  0  0  0  0  0  0  0  0
   -6.3874  -24.5120    0.0000 O   0  0  0  0  0  0  0  0  0  0  0  0
   -4.9897  -24.8091    0.0000 C   0  0  1  0  0  0  0  0  0  0  0  0
   -5.3252  -24.0554    0.0000 N   0  0  0  0  0  0  0  0  0  0  0  0
   -4.8403  -23.3880    0.0000 C   0  0  0  0  0  0  0  0  0  0  0  0
   -4.0198  -23.4742    0.0000 O   0  0  0  0  0  0  0  0  0  0  0  0
   -5.1759  -22.6343    0.0000 C   0  0  2  0  0  0  0  0  0  0  0  0
   -5.9963  -22.5481    0.0000 C   0  0  0  0  0  0  0  0  0  0  0  0
   -6.3319  -21.7944    0.0000 C   0  0  0  0  0  0  0  0  0  0  0  0
   -6.4813  -23.2155    0.0000 C   0  0  0  0  0  0  0  0  0  0  0  0
   -4.6909  -21.9669    0.0000 N   0  0  0  0  0  0  0  0  0  0  0  0
   -3.8705  -22.0531    0.0000 C   0  0  0  0  0  0  0  0  0  0  0  0
   -5.0265  -21.2132    0.0000 C   0  0  0  0  0  0  0  0  0  0  0  0
   -5.8470  -21.1270    0.0000 O   0  0  0  0  0  0  0  0  0  0  0  0
   -4.5416  -20.5457    0.0000 O   0  0  0  0  0  0  0  0  0  0  0  0
   -4.8771  -19.7921    0.0000 C   0  0  0  0  0  0  0  0  0  0  0  0
   -4.3922  -19.1246    0.0000 C   0  0  0  0  0  0  0  0  0  0  0  0
   -4.7278  -18.3710    0.0000 C   0  0  0  0  0  0  0  0  0  0  0  0
   -4.2428  -17.7035    0.0000 C   0  0  0  0  0  0  0  0  0  0  0  0
   -3.4224  -17.7898    0.0000 C   0  0  0  0  0  0  0  0  0  0  0  0
   -2.9374  -17.1223    0.0000 N   0  0  0  0  0  0  0  0  0  0  0  0
   -2.1170  -17.2086    0.0000 C   0  0  0  0  0  0  0  0  0  0  0  0
   -1.7814  -17.9622    0.0000 O   0  0  0  0  0  0  0  0  0  0  0  0
   -1.6320  -16.5411    0.0000 C   0  0  2  0  0  0  0  0  0  0  0  0
   -1.9676  -15.7874    0.0000 C   0  0  0  0  0  0  0  0  0  0  0  0
   -1.4827  -15.1200    0.0000 C   0  0  0  0  0  0  0  0  0  0  0  0
   -1.8182  -14.3663    0.0000 C   0  0  0  0  0  0  0  0  0  0  0  0
   -1.3333  -13.6989    0.0000 N   0  0  0  0  0  0  0  0  0  0  0  0
   -1.6689  -12.9452    0.0000 C   0  0  0  0  0  0  0  0  0  0  0  0
   -2.4893  -12.8590    0.0000 N   0  0  0  0  0  0  0  0  0  0  0  0
   -1.1839  -12.2778    0.0000 O   0  0  0  0  0  0  0  0  0  0  0  0
   -0.8116  -16.6273    0.0000 N   0  0  0  0  0  0  0  0  0  0  0  0
   -0.3266  -15.9599    0.0000 C   0  0  0  0  0  0  0  0  0  0  0  0
   -0.6622  -15.2062    0.0000 O   0  0  0  0  0  0  0  0  0  0  0  0
    0.4938  -16.0461    0.0000 C   0  0  1  0  0  0  0  0  0  0  0  0
    0.9788  -15.3787    0.0000 N   0  0  0  0  0  0  0  0  0  0  0  0
    1.7993  -15.4649    0.0000 C   0  0  0  0  0  0  0  0  0  0  0  0
    2.1348  -16.2186    0.0000 O   0  0  0  0  0  0  0  0  0  0  0  0
    2.2842  -14.7975    0.0000 C   0  0  0  0  0  0  0  0  0  0  0  0
    3.1047  -14.8837    0.0000 C   0  0  0  0  0  0  0  0  0  0  0  0
    3.5896  -14.2163    0.0000 C   0  0  0  0  0  0  0  0  0  0  0  0
    4.4101  -14.3025    0.0000 C   0  0  0  0  0  0  0  0  0  0  0  0
    4.9621  -13.6894    0.0000 C   0  0  0  0  0  0  0  0  0  0  0  0
    5.7158  -14.0250    0.0000 N   0  0  0  0  0  0  0  0  0  0  0  0
    6.4302  -13.6125    0.0000 C   0  0  0  0  0  0  0  0  0  0  0  0
    7.1447  -14.0250    0.0000 C   0  0  0  0  0  0  0  0  0  0  0  0
    7.8592  -13.6125    0.0000 C   0  0  0  0  0  0  0  0  0  0  0  0
    8.5737  -14.0250    0.0000 N   0  0  0  0  0  0  0  0  0  0  0  0
    9.2881  -13.6125    0.0000 C   0  0  0  0  0  0  0  0  0  0  0  0
    9.2881  -12.7875    0.0000 O   0  0  0  0  0  0  0  0  0  0  0  0
   10.0026  -14.0250    0.0000 C   0  0  2  0  0  0  0  0  0  0  0  0
   10.0026  -14.8500    0.0000 C   0  0  0  0  0  0  0  0  0  0  0  0
    9.2881  -15.2625    0.0000 C   0  0  0  0  0  0  0  0  0  0  0  0
    9.2881  -16.0875    0.0000 C   0  0  0  0  0  0  0  0  0  0  0  0
    8.5737  -16.5000    0.0000 C   0  0  0  0  0  0  0  0  0  0  0  0
    7.8592  -16.0875    0.0000 C   0  0  0  0  0  0  0  0  0  0  0  0
    7.1447  -16.5000    0.0000 O   0  0  0  0  0  0  0  0  0  0  0  0
    7.8592  -15.2625    0.0000 C   0  0  0  0  0  0  0  0  0  0  0  0
    8.5737  -14.8500    0.0000 C   0  0  0  0  0  0  0  0  0  0  0  0
   10.7171  -13.6125    0.0000 N   0  0  0  0  0  0  0  0  0  0  0  0
   11.4315  -14.0250    0.0000 C   0  0  0  0  0  0  0  0  0  0  0  0
   11.4315  -14.8500    0.0000 O   0  0  0  0  0  0  0  0  0  0  0  0
   12.1460  -13.6125    0.0000 C   0  0  2  0  0  0  0  0  0  0  0  0
   12.1460  -12.7875    0.0000 C   0  0  0  0  0  0  0  0  0  0  0  0
   11.4315  -12.3750    0.0000 C   0  0  0  0  0  0  0  0  0  0  0  0
   10.7171  -12.7875    0.0000 C   0  0  0  0  0  0  0  0  0  0  0  0
   10.0026  -12.3750    0.0000 C   0  0  0  0  0  0  0  0  0  0  0  0
   10.0026  -11.5500    0.0000 C   0  0  0  0  0  0  0  0  0  0  0  0
   10.7171  -11.1375    0.0000 C   0  0  0  0  0  0  0  0  0  0  0  0
   11.4315  -11.5500    0.0000 C   0  0  0  0  0  0  0  0  0  0  0  0
   12.8605  -14.0250    0.0000 N   0  0  0  0  0  0  0  0  0  0  0  0
   13.5749  -13.6125    0.0000 C   0  0  0  0  0  0  0  0  0  0  0  0
   13.5749  -12.7875    0.0000 O   0  0  0  0  0  0  0  0  0  0  0  0
   14.2894  -14.0250    0.0000 C   0  0  0  0  0  0  0  0  0  0  0  0
   15.0039  -13.6125    0.0000 C   0  0  0  0  0  0  0  0  0  0  0  0
   15.7184  -14.0250    0.0000 C   0  0  0  0  0  0  0  0  0  0  0  0
   15.7184  -14.8500    0.0000 O   0  0  0  0  0  0  0  0  0  0  0  0
   16.4328  -13.6125    0.0000 N   0  0  0  0  0  0  0  0  0  0  0  0
   17.1473  -14.0250    0.0000 C   0  0  0  0  0  0  0  0  0  0  0  0
   17.8618  -13.6125    0.0000 C   0  0  0  0  0  0  0  0  0  0  0  0
   18.5762  -14.0250    0.0000 C   0  0  0  0  0  0  0  0  0  0  0  0
   19.2907  -13.6125    0.0000 C   0  0  0  0  0  0  0  0  0  0  0  0
   20.0052  -14.0250    0.0000 C   0  0  0  0  0  0  0  0  0  0  0  0
   20.7197  -13.6125    0.0000 C   0  0  0  0  0  0  0  0  0  0  0  0
   20.7197  -12.7875    0.0000 O   0  0  0  0  0  0  0  0  0  0  0  0
   21.4341  -14.0250    0.0000 N   0  0  0  0  0  0  0  0  0  0  0  0
   22.1486  -13.6125    0.0000 C   0  0  0  0  0  0  0  0  0  0  0  0
   22.8631  -14.0250    0.0000 C   0  0  0  0  0  0  0  0  0  0  0  0
   23.5775  -13.6125    0.0000 C   0  0  0  0  0  0  0  0  0  0  0  0
   24.2920  -14.0250    0.0000 C   0  0  0  0  0  0  0  0  0  0  0  0
   25.0065  -13.6125    0.0000 C   0  0  2  0  0  0  0  0  0  0  0  0
   25.7210  -14.0250    0.0000 N   0  0  0  0  0  0  0  0  0  0  0  0
   26.4354  -13.6125    0.0000 C   0  0  0  0  0  0  0  0  0  0  0  0
   26.4354  -12.7875    0.0000 O   0  0  0  0  0  0  0  0  0  0  0  0
   27.1499  -14.0250    0.0000 N   0  0  0  0  0  0  0  0  0  0  0  0
   27.8644  -13.6125    0.0000 C   0  0  1  0  0  0  0  0  0  0  0  0
   28.5788  -14.0250    0.0000 C   0  0  0  0  0  0  0  0  0  0  0  0
   29.2933  -13.6125    0.0000 C   0  0  0  0  0  0  0  0  0  0  0  0
   30.0078  -14.0250    0.0000 C   0  0  0  0  0  0  0  0  0  0  0  0
   30.7223  -13.6125    0.0000 O   0  0  0  0  0  0  0  0  0  0  0  0
   30.0078  -14.8500    0.0000 O   0  0  0  0  0  0  0  0  0  0  0  0
   27.8644  -12.7875    0.0000 C   0  0  0  0  0  0  0  0  0  0  0  0
   28.5788  -12.3750    0.0000 O   0  0  0  0  0  0  0  0  0  0  0  0
   27.1499  -12.3750    0.0000 O   0  0  0  0  0  0  0  0  0  0  0  0
   25.0065  -12.7875    0.0000 C   0  0  0  0  0  0  0  0  0  0  0  0
   25.7210  -12.3750    0.0000 O   0  0  0  0  0  0  0  0  0  0  0  0
   24.2920  -12.3750    0.0000 O   0  0  0  0  0  0  0  0  0  0  0  0
   21.4341  -14.8500    0.0000 C   0  0  0  0  0  0  0  0  0  0  0  0
   22.1486  -15.2625    0.0000 C   0  0  0  0  0  0  0  0  0  0  0  0
   22.8631  -14.8500    0.0000 C   0  0  0  0  0  0  0  0  0  0  0  0
   23.5775  -15.2625    0.0000 C   0  0  0  0  0  0  0  0  0  0  0  0
   23.5775  -16.0875    0.0000 C   0  0  0  0  0  0  0  0  0  0  0  0
   22.8631  -16.5000    0.0000 C   0  0  0  0  0  0  0  0  0  0  0  0
   22.8631  -17.3250    0.0000 Cl  0  0  0  0  0  0  0  0  0  0  0  0
   22.1486  -16.0875    0.0000 C   0  0  0  0  0  0  0  0  0  0  0  0
    5.6295  -14.8455    0.0000 N   0  0  0  0  0  0  0  0  0  0  0  0
    4.8226  -15.0170    0.0000 N   0  0  0  0  0  0  0  0  0  0  0  0
    0.8294  -16.7998    0.0000 C   0  0  0  0  0  0  0  0  0  0  0  0
    1.6499  -16.8861    0.0000 C   0  0  0  0  0  0  0  0  0  0  0  0
    0.3445  -17.4673    0.0000 C   0  0  0  0  0  0  0  0  0  0  0  0
   -3.0868  -18.5434    0.0000 C   0  0  0  0  0  0  0  0  0  0  0  0
   -3.5717  -19.2109    0.0000 C   0  0  0  0  0  0  0  0  0  0  0  0
   -4.1692  -24.8953    0.0000 C   0  0  0  0  0  0  0  0  0  0  0  0
   -3.6843  -24.2279    0.0000 C   0  0  0  0  0  0  0  0  0  0  0  0
   -3.3487  -24.8091    0.0000 C   0  0  0  0  0  0  0  0  0  0  0  0
  1  2  1  0  0  0  0
  3  2  1  0  0  0  0
  3  4  1  1  0  0  0
  5  3  1  0  0  0  0
  5  6  1  0  0  0  0
  6  7  1  0  0  0  0
  7  8  1  0  0  0  0
  8  9  2  0  0  0  0
  8 10  1  0  0  0  0
 10 11  1  0  0  0  0
 11 12  1  0  0  0  0
 12 13  1  0  0  0  0
 14 13  1  0  0  0  0
 14 10  1  1  0  0  0
 15 14  1  0  0  0  0
 15 16  1  1  0  0  0
 16 17  1  0  0  0  0
 15 18  1  0  0  0  0
 18 19  1  1  0  0  0
 18 20  1  0  0  0  0
 20 21  2  0  0  0  0
 20 22  1  0  0  0  0
 23 22  1  0  0  0  0
 23 24  1  1  0  0  0
 23 25  1  0  0  0  0
 25 26  1  1  0  0  0
 25 27  1  0  0  0  0
 27 28  4  0  0  0  0
 28 29  4  0  0  0  0
 29 30  4  0  0  0  0
 30 31  4  0  0  0  0
 31 32  4  0  0  0  0
 27 32  4  0  0  0  0
  6 33  1  6  0  0  0
 33 34  1  0  0  0  0
  5 35  1  6  0  0  0
 35 36  1  0  0  0  0
 35 37  1  0  0  0  0
 37 38  2  0  0  0  0
 39 37  1  0  0  0  0
 39 40  1  1  0  0  0
 40 41  1  0  0  0  0
 41 42  2  0  0  0  0
 43 41  1  0  0  0  0
 43 44  1  0  0  0  0
 44 45  1  0  0  0  0
 44 46  1  0  0  0  0
 43 47  1  6  0  0  0
 47 48  1  0  0  0  0
 47 49  1  0  0  0  0
 49 50  2  0  0  0  0
 49 51  1  0  0  0  0
 51 52  1  0  0  0  0
 52 53  1  0  0  0  0
 53 54  4  0  0  0  0
 54 55  4  0  0  0  0
 55 56  4  0  0  0  0
 56 57  1  0  0  0  0
 57 58  1  0  0  0  0
 58 59  2  0  0  0  0
 60 58  1  0  0  0  0
 60 61  1  0  0  0  0
 61 62  1  0  0  0  0
 62 63  1  0  0  0  0
 63 64  1  0  0  0  0
 64 65  1  0  0  0  0
 65 66  1  0  0  0  0
 65 67  2  0  0  0  0
 60 68  1  6  0  0  0
 68 69  1  0  0  0  0
 69 70  2  0  0  0  0
 71 69  1  0  0  0  0
 71 72  1  1  0  0  0
 72 73  1  0  0  0  0
 73 74  2  0  0  0  0
 73 75  1  0  0  0  0
 75 76  1  0  0  0  0
 76 77  1  0  0  0  0
 77 78  1  0  0  0  0
 78 79  4  0  0  0  0
 79 80  4  0  0  0  0
 80 81  1  0  0  0  0
 81 82  1  0  0  0  0
 82 83  1  0  0  0  0
 83 84  1  0  0  0  0
 84 85  1  0  0  0  0
 85 86  2  0  0  0  0
 87 85  1  0  0  0  0
 87 88  1  0  0  0  0
 88 89  1  0  0  0  0
 89 90  4  0  0  0  0
 90 91  4  0  0  0  0
 91 92  4  0  0  0  0
 92 93  1  0  0  0  0
 92 94  4  0  0  0  0
 94 95  4  0  0  0  0
 89 95  4  0  0  0  0
 87 96  1  1  0  0  0
 96 97  1  0  0  0  0
 97 98  2  0  0  0  0
 99 97  1  0  0  0  0
 99100  1  0  0  0  0
100101  1  0  0  0  0
101102  4  0  0  0  0
102103  4  0  0  0  0
103104  4  0  0  0  0
104105  4  0  0  0  0
105106  4  0  0  0  0
101106  4  0  0  0  0
 99107  1  6  0  0  0
107108  1  0  0  0  0
108109  2  0  0  0  0
108110  1  0  0  0  0
110111  1  0  0  0  0
111112  1  0  0  0  0
112113  2  0  0  0  0
112114  1  0  0  0  0
114115  1  0  0  0  0
115116  1  0  0  0  0
116117  1  0  0  0  0
117118  1  0  0  0  0
118119  1  0  0  0  0
119120  1  0  0  0  0
120121  2  0  0  0  0
120122  1  0  0  0  0
122123  1  0  0  0  0
123124  1  0  0  0  0
124125  1  0  0  0  0
125126  1  0  0  0  0
127126  1  0  0  0  0
127128  1  1  0  0  0
128129  1  0  0  0  0
129130  2  0  0  0  0
129131  1  0  0  0  0
132131  1  6  0  0  0
132133  1  0  0  0  0
133134  1  0  0  0  0
134135  1  0  0  0  0
135136  2  0  0  0  0
135137  1  0  0  0  0
132138  1  0  0  0  0
138139  2  0  0  0  0
138140  1  0  0  0  0
127141  1  0  0  0  0
141142  2  0  0  0  0
141143  1  0  0  0  0
122144  1  0  0  0  0
144145  1  0  0  0  0
145146  4  0  0  0  0
146147  4  0  0  0  0
147148  4  0  0  0  0
148149  4  0  0  0  0
149150  1  0  0  0  0
149151  4  0  0  0  0
145151  4  0  0  0  0
 80152  4  0  0  0  0
152153  4  0  0  0  0
 78153  4  0  0  0  0
 71154  1  0  0  0  0
154155  1  0  0  0  0
154156  1  0  0  0  0
 56157  4  0  0  0  0
157158  4  0  0  0  0
 53158  4  0  0  0  0
 39159  1  0  0  0  0
159160  1  0  0  0  0
159161  1  0  0  0  0
M  END
>  <CdId>
620

>  <Mol Weight>
2267.14

>  <Formula>
C114H165ClN20O26

>  <Molecule ChEMBL ID>
CHEMBL5083665

>  <Molecule Max Phase>
None

>  <Molecular Weight>
2267.14

>  <#RO5 Violations>
None

>  <AlogP>
None

>  <Compound Key>
PSMA-Val-Cit-PAB-MMAE

>  <Standard Type>
IC50

>  <Standard Relation>
'>'

>  <Standard Value>
25000.0

>  <Standard Units>
nM

$$$$

  Mrv2114 03112311372D          

 43 47  0  0  1  0            999 V2000
   -0.2319   -3.7331    0.0000 O   0  0  0  0  0  0  0  0  0  0  0  0
   -0.3781   -2.9211    0.0000 C   0  0  0  0  0  0  0  0  0  0  0  0
   -1.1544   -2.6418    0.0000 C   0  0  0  0  0  0  0  0  0  0  0  0
   -1.7845   -3.1744    0.0000 C   0  0  0  0  0  0  0  0  0  0  0  0
   -2.5607   -2.8951    0.0000 C   0  0  0  0  0  0  0  0  0  0  0  0
   -2.7070   -2.0832    0.0000 S   0  0  0  0  0  0  0  0  0  0  0  0
   -3.4812   -2.3682    0.0000 O   0  0  0  0  0  0  0  0  0  0  0  0
   -3.1221   -1.3702    0.0000 O   0  0  0  0  0  0  0  0  0  0  0  0
   -2.0769   -1.5506    0.0000 C   0  0  0  0  0  0  0  0  0  0  0  0
   -1.3007   -1.8299    0.0000 C   0  0  0  0  0  0  0  0  0  0  0  0
    0.2519   -2.3885    0.0000 N   0  0  0  0  0  0  0  0  0  0  0  0
    0.1913   -1.5657    0.0000 C   0  0  0  0  0  0  0  0  0  0  0  0
    0.9551   -1.2539    0.0000 C   0  0  0  0  0  0  0  0  0  0  0  0
    1.4877   -1.8839    0.0000 C   0  0  1  0  0  0  0  0  0  0  0  0
    1.8467   -1.1411    0.0000 S   0  0  0  0  0  0  0  0  0  0  0  0
    2.5737   -0.7511    0.0000 O   0  0  0  0  0  0  0  0  0  0  0  0
    1.1038   -0.7822    0.0000 O   0  0  0  0  0  0  0  0  0  0  0  0
    2.2056   -0.3983    0.0000 C   0  0  0  0  0  0  0  0  0  0  0  0
    1.7417    0.2840    0.0000 C   0  0  0  0  0  0  0  0  0  0  0  0
    2.1007    1.0268    0.0000 C   0  0  0  0  0  0  0  0  0  0  0  0
    2.9234    1.0874    0.0000 C   0  0  0  0  0  0  0  0  0  0  0  0
    3.2824    1.8302    0.0000 F   0  0  0  0  0  0  0  0  0  0  0  0
    3.3873    0.4051    0.0000 C   0  0  0  0  0  0  0  0  0  0  0  0
    3.0284   -0.3377    0.0000 C   0  0  0  0  0  0  0  0  0  0  0  0
    2.3123   -1.9097    0.0000 C   0  0  0  0  0  0  0  0  0  0  0  0
    2.7469   -1.2084    0.0000 C   0  0  0  0  0  0  0  0  0  0  0  0
    3.5715   -1.2342    0.0000 C   0  0  0  0  0  0  0  0  0  0  0  0
    3.9615   -1.9612    0.0000 C   0  0  0  0  0  0  0  0  0  0  0  0
    4.7861   -1.9870    0.0000 C   0  0  0  0  0  0  0  0  0  0  0  0
    4.8119   -1.1624    0.0000 F   0  0  0  0  0  0  0  0  0  0  0  0
    4.7603   -2.8116    0.0000 C   0  0  0  0  0  0  0  0  0  0  0  0
    4.7346   -3.6362    0.0000 F   0  0  0  0  0  0  0  0  0  0  0  0
    3.9358   -2.7858    0.0000 F   0  0  0  0  0  0  0  0  0  0  0  0
    5.5849   -2.8373    0.0000 F   0  0  0  0  0  0  0  0  0  0  0  0
    5.6107   -2.0127    0.0000 C   0  0  0  0  0  0  0  0  0  0  0  0
    6.4353   -2.0385    0.0000 F   0  0  0  0  0  0  0  0  0  0  0  0
    6.0746   -2.6950    0.0000 F   0  0  0  0  0  0  0  0  0  0  0  0
    5.6365   -1.1881    0.0000 F   0  0  0  0  0  0  0  0  0  0  0  0
    3.5269   -2.6624    0.0000 C   0  0  0  0  0  0  0  0  0  0  0  0
    2.7023   -2.6367    0.0000 C   0  0  0  0  0  0  0  0  0  0  0  0
    2.2677   -3.3379    0.0000 C   0  0  0  0  0  0  0  0  0  0  0  0
    1.4431   -3.3122    0.0000 C   0  0  0  0  0  0  0  0  0  0  0  0
    1.0531   -2.5852    0.0000 C   0  0  1  0  0  0  0  0  0  0  0  0
  1  2  2  0  0  0  0
  2  3  1  0  0  0  0
  3  4  1  0  0  0  0
  4  5  1  0  0  0  0
  5  6  1  0  0  0  0
  6  7  2  0  0  0  0
  6  8  2  0  0  0  0
  6  9  1  0  0  0  0
  9 10  1  0  0  0  0
  3 10  1  0  0  0  0
  2 11  1  0  0  0  0
 11 12  1  0  0  0  0
 12 13  1  0  0  0  0
 14 13  1  0  0  0  0
 14 15  1  6  0  0  0
 15 16  2  0  0  0  0
 15 17  2  0  0  0  0
 15 18  1  0  0  0  0
 18 19  4  0  0  0  0
 19 20  4  0  0  0  0
 20 21  4  0  0  0  0
 21 22  1  0  0  0  0
 21 23  4  0  0  0  0
 23 24  4  0  0  0  0
 18 24  4  0  0  0  0
 14 25  1  0  0  0  0
 25 26  4  0  0  0  0
 26 27  4  0  0  0  0
 27 28  4  0  0  0  0
 28 29  1  0  0  0  0
 29 30  1  0  0  0  0
 29 31  1  0  0  0  0
 31 32  1  0  0  0  0
 31 33  1  0  0  0  0
 31 34  1  0  0  0  0
 29 35  1  0  0  0  0
 35 36  1  0  0  0  0
 35 37  1  0  0  0  0
 35 38  1  0  0  0  0
 28 39  4  0  0  0  0
 39 40  4  0  0  0  0
 25 40  4  0  0  0  0
 40 41  1  0  0  0  0
 41 42  1  0  0  0  0
 43 42  1  0  0  0  0
 43 11  1  1  0  0  0
 14 43  1  0  0  0  0
M  END
>  <CdId>
621

>  <Mol Weight>
659.61

>  <Formula>
C27H25F8NO5S2

>  <Molecule ChEMBL ID>
CHEMBL4435992

>  <Molecule Max Phase>
None

>  <Molecular Weight>
659.62

>  <#RO5 Violations>
2

>  <AlogP>
5.16

>  <Compound Key>
1d

>  <Standard Type>
IC50

>  <Standard Relation>
'='

>  <Standard Value>
9400.0

>  <Standard Units>
nM

$$$$

  Mrv2114 03112311372D          

 30 33  0  0  0  0            999 V2000
   -0.7145    2.0625    0.0000 C   0  0  0  0  0  0  0  0  0  0  0  0
    0.0000    1.6500    0.0000 C   0  0  0  0  0  0  0  0  0  0  0  0
    0.7145    2.0625    0.0000 C   0  0  0  0  0  0  0  0  0  0  0  0
    1.4289    1.6500    0.0000 C   0  0  0  0  0  0  0  0  0  0  0  0
    1.4289    0.8250    0.0000 C   0  0  0  0  0  0  0  0  0  0  0  0
    0.7145    0.4125    0.0000 C   0  0  0  0  0  0  0  0  0  0  0  0
    0.7145   -0.4125    0.0000 C   0  0  0  0  0  0  0  0  0  0  0  0
   -0.1105   -0.4125    0.0000 C   0  0  0  0  0  0  0  0  0  0  0  0
    1.5395   -0.4125    0.0000 O   0  0  0  0  0  0  0  0  0  0  0  0
    0.7145   -1.2375    0.0000 C   0  0  0  0  0  0  0  0  0  0  0  0
    1.3819   -1.7224    0.0000 N   0  0  0  0  0  0  0  0  0  0  0  0
    1.1270   -2.5070    0.0000 C   0  0  0  0  0  0  0  0  0  0  0  0
    1.6119   -3.1745    0.0000 N   0  0  0  0  0  0  0  0  0  0  0  0
    2.4324   -3.0882    0.0000 C   0  0  0  0  0  0  0  0  0  0  0  0
    2.9173   -3.7557    0.0000 C   0  0  0  0  0  0  0  0  0  0  0  0
    2.5817   -4.5094    0.0000 C   0  0  0  0  0  0  0  0  0  0  0  0
    3.0667   -5.1768    0.0000 N   0  0  0  0  0  0  0  0  0  0  0  0
    3.8871   -5.0906    0.0000 C   0  0  0  0  0  0  0  0  0  0  0  0
    4.2227   -4.3369    0.0000 O   0  0  0  0  0  0  0  0  0  0  0  0
    4.3721   -5.7580    0.0000 C   0  0  0  0  0  0  0  0  0  0  0  0
    5.1971   -5.7580    0.0000 C   0  0  0  0  0  0  0  0  0  0  0  0
    5.4520   -6.5426    0.0000 S   0  0  0  0  0  0  0  0  0  0  0  0
    4.7846   -7.0275    0.0000 C   0  0  0  0  0  0  0  0  0  0  0  0
    4.1171   -6.5426    0.0000 N   0  0  0  0  0  0  0  0  0  0  0  0
    1.7613   -4.5956    0.0000 C   0  0  0  0  0  0  0  0  0  0  0  0
    1.2763   -3.9282    0.0000 C   0  0  0  0  0  0  0  0  0  0  0  0
    0.4559   -4.0144    0.0000 O   0  0  0  0  0  0  0  0  0  0  0  0
    0.3020   -2.5070    0.0000 C   0  0  0  0  0  0  0  0  0  0  0  0
    0.0470   -1.7224    0.0000 N   0  0  0  0  0  0  0  0  0  0  0  0
    0.0000    0.8250    0.0000 C   0  0  0  0  0  0  0  0  0  0  0  0
  1  2  1  0  0  0  0
  2  3  4  0  0  0  0
  3  4  4  0  0  0  0
  4  5  4  0  0  0  0
  5  6  4  0  0  0  0
  6  7  1  0  0  0  0
  7  8  1  0  0  0  0
  7  9  1  0  0  0  0
  7 10  1  0  0  0  0
 10 11  4  0  0  0  0
 11 12  4  0  0  0  0
 12 13  1  0  0  0  0
 13 14  4  0  0  0  0
 14 15  4  0  0  0  0
 15 16  4  0  0  0  0
 16 17  1  0  0  0  0
 17 18  1  0  0  0  0
 18 19  2  0  0  0  0
 18 20  1  0  0  0  0
 20 21  4  0  0  0  0
 21 22  4  0  0  0  0
 22 23  4  0  0  0  0
 23 24  4  0  0  0  0
 20 24  4  0  0  0  0
 16 25  4  0  0  0  0
 25 26  4  0  0  0  0
 13 26  4  0  0  0  0
 26 27  2  0  0  0  0
 12 28  4  0  0  0  0
 28 29  4  0  0  0  0
 10 29  4  0  0  0  0
  6 30  4  0  0  0  0
  2 30  4  0  0  0  0
M  STY  1   1 DAT
M  SAL   1  1  29
M  SDT   1 MRV_IMPLICIT_H                                        
M  SDD   1     0.0000    0.0000    DR    ALL  0       0  
M  SED   1 IMPL_H1
M  END
>  <CdId>
622

>  <Mol Weight>
421.48

>  <Formula>
C21H19N5O3S

>  <Molecule ChEMBL ID>
CHEMBL3810414

>  <Molecule Max Phase>
None

>  <Molecular Weight>
421.48

>  <#RO5 Violations>
0

>  <AlogP>
2.83

>  <Compound Key>
25

>  <Standard Type>
IC50

>  <Standard Relation>
'='

>  <Standard Value>
21000.0

>  <Standard Units>
nM

$$$$

  Mrv2114 03112311372D          

 27 30  0  0  1  0            999 V2000
    0.7145    1.2375    0.0000 C   0  0  0  0  0  0  0  0  0  0  0  0
    0.0000    0.8250    0.0000 C   0  0  2  0  0  0  0  0  0  0  0  0
    0.0000    0.0000    0.0000 O   0  0  0  0  0  0  0  0  0  0  0  0
    0.7145   -0.4125    0.0000 C   0  0  0  0  0  0  0  0  0  0  0  0
    1.4289    0.0000    0.0000 C   0  0  0  0  0  0  0  0  0  0  0  0
    2.1434   -0.4125    0.0000 C   0  0  0  0  0  0  0  0  0  0  0  0
    2.8579    0.0000    0.0000 C   0  0  0  0  0  0  0  0  0  0  0  0
    3.5724   -0.4125    0.0000 C   0  0  0  0  0  0  0  0  0  0  0  0
    4.2868   -0.0000    0.0000 F   0  0  0  0  0  0  0  0  0  0  0  0
    3.5724   -1.2375    0.0000 C   0  0  0  0  0  0  0  0  0  0  0  0
    2.8579   -1.6500    0.0000 C   0  0  0  0  0  0  0  0  0  0  0  0
    2.1434   -1.2375    0.0000 C   0  0  0  0  0  0  0  0  0  0  0  0
    1.4289   -1.6500    0.0000 N   0  0  0  0  0  0  0  0  0  0  0  0
    0.7145   -1.2375    0.0000 C   0  0  0  0  0  0  0  0  0  0  0  0
    0.0000   -1.6500    0.0000 N   0  0  0  0  0  0  0  0  0  0  0  0
   -0.7145    1.2375    0.0000 C   0  0  0  0  0  0  0  0  0  0  0  0
   -1.4289    0.8250    0.0000 N   0  0  0  0  0  0  0  0  0  0  0  0
   -2.1434    1.2375    0.0000 C   0  0  0  0  0  0  0  0  0  0  0  0
   -2.8579    0.8250    0.0000 O   0  0  0  0  0  0  0  0  0  0  0  0
   -2.1434    2.0625    0.0000 C   0  0  0  0  0  0  0  0  0  0  0  0
   -1.4289    2.4750    0.0000 C   0  0  0  0  0  0  0  0  0  0  0  0
   -0.7145    2.0625    0.0000 C   0  0  0  0  0  0  0  0  0  0  0  0
    0.0000    2.4750    0.0000 N   0  0  0  0  0  0  0  0  0  0  0  0
    0.0862    3.2955    0.0000 C   0  0  0  0  0  0  0  0  0  0  0  0
    0.8932    3.4670    0.0000 C   0  0  0  0  0  0  0  0  0  0  0  0
    1.3057    2.7525    0.0000 C   0  0  0  0  0  0  0  0  0  0  0  0
    0.7537    2.1394    0.0000 N   0  0  0  0  0  0  0  0  0  0  0  0
  2  1  1  6  0  0  0
  2  3  1  0  0  0  0
  3  4  1  0  0  0  0
  4  5  4  0  0  0  0
  5  6  4  0  0  0  0
  6  7  4  0  0  0  0
  7  8  4  0  0  0  0
  8  9  1  0  0  0  0
  8 10  4  0  0  0  0
 10 11  4  0  0  0  0
 11 12  4  0  0  0  0
  6 12  4  0  0  0  0
 12 13  4  0  0  0  0
 13 14  4  0  0  0  0
  4 14  4  0  0  0  0
 14 15  1  0  0  0  0
  2 16  1  0  0  0  0
 16 17  4  0  0  0  0
 17 18  4  0  0  0  0
 18 19  2  0  0  0  0
 18 20  4  0  0  0  0
 20 21  4  0  0  0  0
 21 22  4  0  0  0  0
 16 22  4  0  0  0  0
 22 23  1  0  0  0  0
 23 24  4  0  0  0  0
 24 25  4  0  0  0  0
 25 26  4  0  0  0  0
 26 27  4  0  0  0  0
 23 27  4  0  0  0  0
M  STY  1   1 DAT
M  SAL   1  1  17
M  SDT   1 MRV_IMPLICIT_H                                        
M  SDD   1     0.0000    0.0000    DR    ALL  0       0  
M  SED   1 IMPL_H1
M  END
>  <CdId>
623

>  <Mol Weight>
365.368

>  <Formula>
C19H16FN5O2

>  <Molecule ChEMBL ID>
CHEMBL4650304

>  <Molecule Name>
PF-07059013

>  <Molecule Max Phase>
1

>  <Molecular Weight>
365.37

>  <#RO5 Violations>
0

>  <AlogP>
2.97

>  <Compound Key>
23; PF-07059013

>  <Standard Type>
IC50

>  <Standard Relation>
'='

>  <Standard Value>
21800.0

>  <Standard Units>
nM

$$$$

  Mrv2114 03112311372D          

 46 50  0  0  1  0            999 V2000
   -0.8543   -2.8347    0.0000 C   0  0  0  0  0  0  0  0  0  0  0  0
   -1.4063   -2.2216    0.0000 O   0  0  0  0  0  0  0  0  0  0  0  0
   -1.1514   -1.4370    0.0000 C   0  0  0  0  0  0  0  0  0  0  0  0
   -1.7034   -0.8239    0.0000 C   0  0  0  0  0  0  0  0  0  0  0  0
   -1.4485   -0.0392    0.0000 C   0  0  0  0  0  0  0  0  0  0  0  0
   -0.6415    0.1323    0.0000 C   0  0  0  0  0  0  0  0  0  0  0  0
   -0.3866    0.9169    0.0000 C   0  0  0  0  0  0  0  0  0  0  0  0
    0.4204    1.0884    0.0000 C   0  0  0  0  0  0  0  0  0  0  0  0
    0.6754    1.8731    0.0000 C   0  0  0  0  0  0  0  0  0  0  0  0
    0.1233    2.4861    0.0000 O   0  0  0  0  0  0  0  0  0  0  0  0
    1.4823    2.0446    0.0000 O   0  0  0  0  0  0  0  0  0  0  0  0
   -0.0895   -0.4808    0.0000 C   0  0  0  0  0  0  0  0  0  0  0  0
   -0.3444   -1.2654    0.0000 C   0  0  0  0  0  0  0  0  0  0  0  0
    0.2076   -1.8785    0.0000 C   0  0  0  0  0  0  0  0  0  0  0  0
   -0.0473   -2.6631    0.0000 C   0  0  0  0  0  0  0  0  0  0  0  0
    0.5047   -3.2762    0.0000 C   0  0  0  0  0  0  0  0  0  0  0  0
    1.3117   -3.1047    0.0000 C   0  0  0  0  0  0  0  0  0  0  0  0
    1.8637   -3.7178    0.0000 C   0  0  0  0  0  0  0  0  0  0  0  0
    2.4158   -4.3309    0.0000 F   0  0  0  0  0  0  0  0  0  0  0  0
    1.2506   -4.2698    0.0000 F   0  0  0  0  0  0  0  0  0  0  0  0
    2.4768   -3.1658    0.0000 F   0  0  0  0  0  0  0  0  0  0  0  0
    1.5666   -2.3201    0.0000 C   0  0  0  0  0  0  0  0  0  0  0  0
    1.0146   -1.7070    0.0000 C   0  0  0  0  0  0  0  0  0  0  0  0
    1.2695   -0.9224    0.0000 C   0  0  2  0  0  0  0  0  0  0  0  0
    0.7846   -0.2549    0.0000 C   0  0  0  0  0  0  0  0  0  0  0  0
    1.2695    0.4125    0.0000 C   0  0  0  0  0  0  0  0  0  0  0  0
    2.0542    0.1576    0.0000 C   0  0  1  0  0  0  0  0  0  0  0  0
    2.8388    0.4125    0.0000 C   0  0  1  0  0  0  0  0  0  0  0  0
    3.0937    1.1971    0.0000 C   0  0  0  0  0  0  0  0  0  0  0  0
    2.5417    1.8102    0.0000 C   0  0  0  0  0  0  0  0  0  0  0  0
    2.7966    2.5948    0.0000 C   0  0  0  0  0  0  0  0  0  0  0  0
    2.2446    3.2079    0.0000 C   0  0  0  0  0  0  0  0  0  0  0  0
    1.6926    3.8210    0.0000 F   0  0  0  0  0  0  0  0  0  0  0  0
    2.8577    3.7600    0.0000 F   0  0  0  0  0  0  0  0  0  0  0  0
    1.6315    2.6559    0.0000 F   0  0  0  0  0  0  0  0  0  0  0  0
    3.6036    2.7664    0.0000 C   0  0  0  0  0  0  0  0  0  0  0  0
    4.1556    2.1533    0.0000 C   0  0  0  0  0  0  0  0  0  0  0  0
    4.9626    2.3248    0.0000 C   0  0  0  0  0  0  0  0  0  0  0  0
    5.7696    2.4963    0.0000 F   0  0  0  0  0  0  0  0  0  0  0  0
    5.1341    1.5178    0.0000 F   0  0  0  0  0  0  0  0  0  0  0  0
    4.7911    3.1318    0.0000 F   0  0  0  0  0  0  0  0  0  0  0  0
    3.9007    1.3686    0.0000 C   0  0  0  0  0  0  0  0  0  0  0  0
    3.3237   -0.2549    0.0000 O   0  0  0  0  0  0  0  0  0  0  0  0
    2.8388   -0.9224    0.0000 C   0  0  0  0  0  0  0  0  0  0  0  0
    3.0937   -1.7070    0.0000 O   0  0  0  0  0  0  0  0  0  0  0  0
    2.0542   -0.6674    0.0000 N   0  0  0  0  0  0  0  0  0  0  0  0
  1  2  1  0  0  0  0
  2  3  1  0  0  0  0
  3  4  4  0  0  0  0
  4  5  4  0  0  0  0
  5  6  4  0  0  0  0
  6  7  1  0  0  0  0
  7  8  1  0  0  0  0
  8  9  1  0  0  0  0
  9 10  2  0  0  0  0
  9 11  1  0  0  0  0
  6 12  4  0  0  0  0
 12 13  4  0  0  0  0
  3 13  4  0  0  0  0
 13 14  1  0  0  0  0
 14 15  4  0  0  0  0
 15 16  4  0  0  0  0
 16 17  4  0  0  0  0
 17 18  1  0  0  0  0
 18 19  1  0  0  0  0
 18 20  1  0  0  0  0
 18 21  1  0  0  0  0
 17 22  4  0  0  0  0
 22 23  4  0  0  0  0
 14 23  4  0  0  0  0
 24 23  1  6  0  0  0
 24 25  1  0  0  0  0
 25 26  1  0  0  0  0
 27 26  1  0  0  0  0
 27 28  1  0  0  0  0
 28 29  1  1  0  0  0
 29 30  4  0  0  0  0
 30 31  4  0  0  0  0
 31 32  1  0  0  0  0
 32 33  1  0  0  0  0
 32 34  1  0  0  0  0
 32 35  1  0  0  0  0
 31 36  4  0  0  0  0
 36 37  4  0  0  0  0
 37 38  1  0  0  0  0
 38 39  1  0  0  0  0
 38 40  1  0  0  0  0
 38 41  1  0  0  0  0
 37 42  4  0  0  0  0
 29 42  4  0  0  0  0
 28 43  1  0  0  0  0
 43 44  1  0  0  0  0
 44 45  2  0  0  0  0
 44 46  1  0  0  0  0
 24 46  1  0  0  0  0
 27 46  1  1  0  0  0
M  END
>  <CdId>
624

>  <Mol Weight>
661.521

>  <Formula>
C31H24F9NO5

>  <Molecule ChEMBL ID>
CHEMBL4848777

>  <Molecule Max Phase>
None

>  <Molecular Weight>
661.52

>  <#RO5 Violations>
2

>  <AlogP>
8.83

>  <Compound Key>
92

>  <Standard Type>
IC50

>  <Standard Relation>
'='

>  <Standard Value>
2000.0

>  <Standard Units>
nM

$$$$

  Mrv2114 03112311372D          

 26 28  0  0  0  0            999 V2000
    1.5356   10.5402    0.0000 C   0  0  0  0  0  0  0  0  0  0  0  0
    1.5356    9.7152    0.0000 O   0  0  0  0  0  0  0  0  0  0  0  0
    2.2501    9.3027    0.0000 C   0  0  0  0  0  0  0  0  0  0  0  0
    2.9646    9.7152    0.0000 C   0  0  0  0  0  0  0  0  0  0  0  0
    3.6791    9.3027    0.0000 C   0  0  0  0  0  0  0  0  0  0  0  0
    3.6791    8.4777    0.0000 C   0  0  0  0  0  0  0  0  0  0  0  0
    2.9646    8.0652    0.0000 C   0  0  0  0  0  0  0  0  0  0  0  0
    2.9646    7.2402    0.0000 C   0  0  0  0  0  0  0  0  0  0  0  0
    3.6791    6.8277    0.0000 O   0  0  0  0  0  0  0  0  0  0  0  0
    2.2501    6.8277    0.0000 C   0  0  0  0  0  0  0  0  0  0  0  0
    2.2501    6.0027    0.0000 O   0  0  0  0  0  0  0  0  0  0  0  0
    1.5356    5.5902    0.0000 C   0  0  0  0  0  0  0  0  0  0  0  0
    1.5356    4.7652    0.0000 C   0  0  0  0  0  0  0  0  0  0  0  0
    0.8212    4.3527    0.0000 C   0  0  0  0  0  0  0  0  0  0  0  0
    0.1067    4.7652    0.0000 C   0  0  0  0  0  0  0  0  0  0  0  0
   -0.6078    4.3527    0.0000 C   0  0  0  0  0  0  0  0  0  0  0  0
   -0.6078    3.5277    0.0000 C   0  0  0  0  0  0  0  0  0  0  0  0
    0.0597    3.0428    0.0000 S   0  0  0  0  0  0  0  0  0  0  0  0
   -0.1953    2.2581    0.0000 C   0  0  0  0  0  0  0  0  0  0  0  0
    0.2897    1.5907    0.0000 O   0  0  0  0  0  0  0  0  0  0  0  0
   -1.0203    2.2581    0.0000 N   0  0  0  0  0  0  0  0  0  0  0  0
   -1.2752    3.0428    0.0000 C   0  0  0  0  0  0  0  0  0  0  0  0
   -2.0598    3.2977    0.0000 O   0  0  0  0  0  0  0  0  0  0  0  0
    0.1067    5.5902    0.0000 C   0  0  0  0  0  0  0  0  0  0  0  0
    0.8212    6.0027    0.0000 C   0  0  0  0  0  0  0  0  0  0  0  0
    2.2501    8.4777    0.0000 C   0  0  0  0  0  0  0  0  0  0  0  0
  1  2  1  0  0  0  0
  2  3  1  0  0  0  0
  3  4  4  0  0  0  0
  4  5  4  0  0  0  0
  5  6  4  0  0  0  0
  6  7  4  0  0  0  0
  7  8  1  0  0  0  0
  8  9  2  0  0  0  0
  8 10  1  0  0  0  0
 10 11  1  0  0  0  0
 11 12  1  0  0  0  0
 12 13  4  0  0  0  0
 13 14  4  0  0  0  0
 14 15  4  0  0  0  0
 15 16  1  0  0  0  0
 16 17  1  0  0  0  0
 17 18  1  0  0  0  0
 18 19  1  0  0  0  0
 19 20  2  0  0  0  0
 19 21  1  0  0  0  0
 21 22  1  0  0  0  0
 17 22  1  0  0  0  0
 22 23  2  0  0  0  0
 15 24  4  0  0  0  0
 24 25  4  0  0  0  0
 12 25  4  0  0  0  0
  7 26  4  0  0  0  0
  3 26  4  0  0  0  0
M  END
>  <CdId>
625

>  <Mol Weight>
371.41

>  <Formula>
C19H17NO5S

>  <Molecule ChEMBL ID>
CHEMBL4291468

>  <Molecule Max Phase>
None

>  <Molecular Weight>
371.41

>  <#RO5 Violations>
0

>  <AlogP>
2.85

>  <Compound Key>
7

>  <Standard Type>
IC50

>  <Standard Relation>
'='

>  <Standard Value>
7000.0

>  <Standard Units>
nM

$$$$

  Mrv2114 03112311372D          

 26 28  0  0  0  0            999 V2000
    2.2501   10.9527    0.0000 C   0  0  0  0  0  0  0  0  0  0  0  0
    2.9646   10.5402    0.0000 C   0  0  0  0  0  0  0  0  0  0  0  0
    2.9646    9.7152    0.0000 C   0  0  0  0  0  0  0  0  0  0  0  0
    3.6791    9.3027    0.0000 C   0  0  0  0  0  0  0  0  0  0  0  0
    3.6791    8.4777    0.0000 C   0  0  0  0  0  0  0  0  0  0  0  0
    2.9646    8.0652    0.0000 C   0  0  0  0  0  0  0  0  0  0  0  0
    2.9646    7.2402    0.0000 C   0  0  0  0  0  0  0  0  0  0  0  0
    3.6791    6.8277    0.0000 O   0  0  0  0  0  0  0  0  0  0  0  0
    2.2501    6.8277    0.0000 C   0  0  0  0  0  0  0  0  0  0  0  0
    2.2501    6.0027    0.0000 O   0  0  0  0  0  0  0  0  0  0  0  0
    1.5356    5.5902    0.0000 C   0  0  0  0  0  0  0  0  0  0  0  0
    1.5356    4.7652    0.0000 C   0  0  0  0  0  0  0  0  0  0  0  0
    0.8212    4.3527    0.0000 C   0  0  0  0  0  0  0  0  0  0  0  0
    0.1067    4.7652    0.0000 C   0  0  0  0  0  0  0  0  0  0  0  0
   -0.6078    4.3527    0.0000 C   0  0  0  0  0  0  0  0  0  0  0  0
   -0.6078    3.5277    0.0000 C   0  0  0  0  0  0  0  0  0  0  0  0
    0.0597    3.0428    0.0000 S   0  0  0  0  0  0  0  0  0  0  0  0
   -0.1953    2.2581    0.0000 C   0  0  0  0  0  0  0  0  0  0  0  0
    0.2897    1.5907    0.0000 O   0  0  0  0  0  0  0  0  0  0  0  0
   -1.0203    2.2581    0.0000 N   0  0  0  0  0  0  0  0  0  0  0  0
   -1.2752    3.0428    0.0000 C   0  0  0  0  0  0  0  0  0  0  0  0
   -2.0598    3.2977    0.0000 O   0  0  0  0  0  0  0  0  0  0  0  0
    0.1067    5.5902    0.0000 C   0  0  0  0  0  0  0  0  0  0  0  0
    0.8212    6.0027    0.0000 C   0  0  0  0  0  0  0  0  0  0  0  0
    2.2501    8.4777    0.0000 N   0  0  0  0  0  0  0  0  0  0  0  0
    2.2501    9.3027    0.0000 C   0  0  0  0  0  0  0  0  0  0  0  0
  1  2  1  0  0  0  0
  2  3  1  0  0  0  0
  3  4  4  0  0  0  0
  4  5  4  0  0  0  0
  5  6  4  0  0  0  0
  6  7  1  0  0  0  0
  7  8  2  0  0  0  0
  7  9  1  0  0  0  0
  9 10  1  0  0  0  0
 10 11  1  0  0  0  0
 11 12  4  0  0  0  0
 12 13  4  0  0  0  0
 13 14  4  0  0  0  0
 14 15  1  0  0  0  0
 15 16  1  0  0  0  0
 16 17  1  0  0  0  0
 17 18  1  0  0  0  0
 18 19  2  0  0  0  0
 18 20  1  0  0  0  0
 20 21  1  0  0  0  0
 16 21  1  0  0  0  0
 21 22  2  0  0  0  0
 14 23  4  0  0  0  0
 23 24  4  0  0  0  0
 11 24  4  0  0  0  0
  6 25  4  0  0  0  0
 25 26  4  0  0  0  0
  3 26  4  0  0  0  0
M  END
>  <CdId>
626

>  <Mol Weight>
370.42

>  <Formula>
C19H18N2O4S

>  <Molecule ChEMBL ID>
CHEMBL146624

>  <Molecule Name>
MITOGLITAZONE

>  <Molecule Max Phase>
2

>  <Molecular Weight>
370.43

>  <#RO5 Violations>
0

>  <AlogP>
2.8

>  <Compound Key>
6

>  <Standard Type>
IC50

>  <Standard Relation>
'='

>  <Standard Value>
26000.0

>  <Standard Units>
nM

$$$$

  Mrv2114 03112311372D          

 26 29  0  0  1  0            999 V2000
   -2.1262    0.1913    0.0000 C   0  0  0  0  0  0  0  0  0  0  0  0
   -1.3057    0.2775    0.0000 C   0  0  0  0  0  0  0  0  0  0  0  0
   -0.8932    0.9920    0.0000 C   0  0  0  0  0  0  0  0  0  0  0  0
   -0.0862    0.8205    0.0000 O   0  0  0  0  0  0  0  0  0  0  0  0
    0.0000    0.0000    0.0000 C   0  0  0  0  0  0  0  0  0  0  0  0
    0.7145   -0.4125    0.0000 C   0  0  1  0  0  0  0  0  0  0  0  0
    1.4289    0.0000    0.0000 C   0  0  0  0  0  0  0  0  0  0  0  0
    2.1434   -0.4125    0.0000 C   0  0  1  0  0  0  0  0  0  0  0  0
    2.8579    0.0000    0.0000 C   0  0  1  0  0  0  0  0  0  0  0  0
    2.8579    0.8250    0.0000 C   0  0  0  0  0  0  0  0  0  0  0  0
    3.5724   -0.4125    0.0000 S   0  0  0  0  0  0  0  0  0  0  0  0
    3.5724   -1.2375    0.0000 C   0  0  0  0  0  0  0  0  0  0  0  0
    4.2868   -1.6500    0.0000 N   0  0  0  0  0  0  0  0  0  0  0  0
    2.8579   -1.6500    0.0000 N   0  0  0  0  0  0  0  0  0  0  0  0
    2.1434   -1.2375    0.0000 C   0  0  2  0  0  0  0  0  0  0  0  0
    2.1434   -2.0625    0.0000 C   0  0  0  0  0  0  0  0  0  0  0  0
    2.8579   -2.4750    0.0000 C   0  0  0  0  0  0  0  0  0  0  0  0
    2.8579   -3.3000    0.0000 C   0  0  0  0  0  0  0  0  0  0  0  0
    2.1434   -3.7125    0.0000 C   0  0  0  0  0  0  0  0  0  0  0  0
    2.1434   -4.5375    0.0000 F   0  0  0  0  0  0  0  0  0  0  0  0
    1.4289   -3.3000    0.0000 C   0  0  0  0  0  0  0  0  0  0  0  0
    1.4289   -2.4750    0.0000 C   0  0  0  0  0  0  0  0  0  0  0  0
    0.7145   -2.0625    0.0000 F   0  0  0  0  0  0  0  0  0  0  0  0
    1.4289   -1.6500    0.0000 C   0  0  0  0  0  0  0  0  0  0  0  0
    0.7145   -1.2375    0.0000 O   0  0  0  0  0  0  0  0  0  0  0  0
   -0.7537   -0.3356    0.0000 N   0  0  0  0  0  0  0  0  0  0  0  0
  1  2  1  0  0  0  0
  2  3  4  0  0  0  0
  3  4  4  0  0  0  0
  4  5  4  0  0  0  0
  6  5  1  1  0  0  0
  6  7  1  0  0  0  0
  8  7  1  1  0  0  0
  8  9  1  0  0  0  0
  9 10  1  1  0  0  0
  9 11  1  0  0  0  0
 11 12  1  0  0  0  0
 12 13  1  0  0  0  0
 12 14  2  0  0  0  0
 15 14  1  0  0  0  0
  8 15  1  0  0  0  0
 15 16  1  6  0  0  0
 16 17  4  0  0  0  0
 17 18  4  0  0  0  0
 18 19  4  0  0  0  0
 19 20  1  0  0  0  0
 19 21  4  0  0  0  0
 21 22  4  0  0  0  0
 16 22  4  0  0  0  0
 22 23  1  0  0  0  0
 15 24  1  0  0  0  0
 24 25  1  0  0  0  0
  6 25  1  0  0  0  0
  5 26  4  0  0  0  0
  2 26  4  0  0  0  0
M  END
>  <CdId>
627

>  <Mol Weight>
379.43

>  <Formula>
C18H19F2N3O2S

>  <Molecule ChEMBL ID>
CHEMBL3422241

>  <Molecule Max Phase>
None

>  <Molecular Weight>
379.43

>  <#RO5 Violations>
0

>  <AlogP>
3.68

>  <Compound Key>
9

>  <Standard Type>
IC50

>  <Standard Relation>
'>'

>  <Standard Value>
30000.0

>  <Standard Units>
nM

$$$$

  Mrv2114 03112311372D          

 30 31  0  0  1  0            999 V2000
    0.2464    1.5647    0.0000 C   0  0  0  0  0  0  0  0  0  0  0  0
    0.9608    1.1522    0.0000 C   0  0  2  0  0  0  0  0  0  0  0  0
    0.9608    0.3272    0.0000 N   0  0  0  0  0  0  0  0  0  0  0  0
    0.2464   -0.0853    0.0000 C   0  0  0  0  0  0  0  0  0  0  0  0
   -0.4681    0.3272    0.0000 O   0  0  0  0  0  0  0  0  0  0  0  0
    0.2464   -0.9103    0.0000 C   0  0  1  0  0  0  0  0  0  0  0  0
    0.9608   -1.3228    0.0000 C   0  0  0  0  0  0  0  0  0  0  0  0
    0.9608   -2.1478    0.0000 C   0  0  0  0  0  0  0  0  0  0  0  0
    0.2464   -2.5603    0.0000 C   0  0  0  0  0  0  0  0  0  0  0  0
   -0.4681   -2.1478    0.0000 C   0  0  0  0  0  0  0  0  0  0  0  0
   -0.4681   -1.3228    0.0000 N   0  0  0  0  0  0  0  0  0  0  0  0
   -1.1826   -0.9103    0.0000 C   0  0  0  0  0  0  0  0  0  0  0  0
   -1.8970   -1.3228    0.0000 C   0  0  0  0  0  0  0  0  0  0  0  0
   -2.6115   -0.9103    0.0000 O   0  0  0  0  0  0  0  0  0  0  0  0
   -3.3260   -1.3228    0.0000 C   0  0  0  0  0  0  0  0  0  0  0  0
   -3.3260   -2.1478    0.0000 C   0  0  0  0  0  0  0  0  0  0  0  0
   -4.0405   -2.5603    0.0000 C   0  0  0  0  0  0  0  0  0  0  0  0
   -4.7549   -2.1478    0.0000 C   0  0  0  0  0  0  0  0  0  0  0  0
   -4.7549   -1.3228    0.0000 C   0  0  0  0  0  0  0  0  0  0  0  0
   -4.0405   -0.9103    0.0000 C   0  0  0  0  0  0  0  0  0  0  0  0
    1.6753    1.5647    0.0000 C   0  0  0  0  0  0  0  0  0  0  0  0
    1.6753    2.3897    0.0000 C   0  0  0  0  0  0  0  0  0  0  0  0
    2.3898    2.8022    0.0000 C   0  0  0  0  0  0  0  0  0  0  0  0
    3.1043    2.3897    0.0000 C   0  0  0  0  0  0  0  0  0  0  0  0
    3.8187    2.8022    0.0000 C   0  0  0  0  0  0  0  0  0  0  0  0
    3.8187    3.6272    0.0000 O   0  0  0  0  0  0  0  0  0  0  0  0
    4.5332    2.3897    0.0000 O   0  0  0  0  0  0  0  0  0  0  0  0
    3.1043    1.5647    0.0000 C   0  0  0  0  0  0  0  0  0  0  0  0
    2.3898    1.1522    0.0000 C   0  0  0  0  0  0  0  0  0  0  0  0
    6.5368    0.0000    0.0000 Cl  0  0  0  0  0  0  0  0  0  0  0  0
  2  1  1  1  0  0  0
  2  3  1  0  0  0  0
  3  4  1  0  0  0  0
  4  5  2  0  0  0  0
  6  4  1  1  0  0  0
  6  7  1  0  0  0  0
  7  8  1  0  0  0  0
  8  9  1  0  0  0  0
  9 10  1  0  0  0  0
 10 11  1  0  0  0  0
  6 11  1  0  0  0  0
 11 12  1  0  0  0  0
 12 13  1  0  0  0  0
 13 14  1  0  0  0  0
 14 15  1  0  0  0  0
 15 16  4  0  0  0  0
 16 17  4  0  0  0  0
 17 18  4  0  0  0  0
 18 19  4  0  0  0  0
 19 20  4  0  0  0  0
 15 20  4  0  0  0  0
  2 21  1  0  0  0  0
 21 22  4  0  0  0  0
 22 23  4  0  0  0  0
 23 24  4  0  0  0  0
 24 25  1  0  0  0  0
 25 26  2  0  0  0  0
 25 27  1  0  0  0  0
 24 28  4  0  0  0  0
 28 29  4  0  0  0  0
 21 29  4  0  0  0  0
M  END
>  <CdId>
628

>  <Mol Weight>
432.95

>  <Formula>
C23H29ClN2O4

>  <Molecule ChEMBL ID>
CHEMBL3115074

>  <Molecule Max Phase>
None

>  <Molecular Weight>
432.95

>  <#RO5 Violations>
0

>  <AlogP>
3.5

>  <Compound Key>
6

>  <Standard Type>
IC50

>  <Standard Relation>
'>'

>  <Standard Value>
10000.0

>  <Standard Units>
nM

$$$$

  Mrv2114 03112311372D          

 29 31  0  0  0  0            999 V2000
    0.9681   -6.5147    0.0000 C   0  0  0  0  0  0  0  0  0  0  0  0
    0.4161   -5.9016    0.0000 C   0  0  0  0  0  0  0  0  0  0  0  0
   -0.3909   -6.0731    0.0000 C   0  0  0  0  0  0  0  0  0  0  0  0
    0.6710   -5.1170    0.0000 C   0  0  0  0  0  0  0  0  0  0  0  0
    0.1190   -4.5039    0.0000 O   0  0  0  0  0  0  0  0  0  0  0  0
    0.3739   -3.7192    0.0000 C   0  0  0  0  0  0  0  0  0  0  0  0
   -0.1781   -3.1062    0.0000 C   0  0  0  0  0  0  0  0  0  0  0  0
    0.0768   -2.3215    0.0000 C   0  0  0  0  0  0  0  0  0  0  0  0
    0.8838   -2.1500    0.0000 C   0  0  0  0  0  0  0  0  0  0  0  0
    1.1387   -1.3654    0.0000 C   0  0  0  0  0  0  0  0  0  0  0  0
    0.6538   -0.6979    0.0000 C   0  0  0  0  0  0  0  0  0  0  0  0
    1.1387   -0.0305    0.0000 N   0  0  0  0  0  0  0  0  0  0  0  0
    0.8838    0.7541    0.0000 C   0  0  0  0  0  0  0  0  0  0  0  0
    1.9233   -0.2854    0.0000 C   0  0  0  0  0  0  0  0  0  0  0  0
    2.6378    0.1271    0.0000 C   0  0  0  0  0  0  0  0  0  0  0  0
    3.3523   -0.2854    0.0000 C   0  0  0  0  0  0  0  0  0  0  0  0
    4.0668    0.1271    0.0000 C   0  0  0  0  0  0  0  0  0  0  0  0
    4.0668    0.9521    0.0000 O   0  0  0  0  0  0  0  0  0  0  0  0
    4.7812   -0.2854    0.0000 N   0  0  0  0  0  0  0  0  0  0  0  0
    5.4957    0.1271    0.0000 S   0  0  0  0  0  0  0  0  0  0  0  0
    6.2102    0.5396    0.0000 C   0  0  0  0  0  0  0  0  0  0  0  0
    5.9082   -0.5874    0.0000 O   0  0  0  0  0  0  0  0  0  0  0  0
    5.0832    0.8415    0.0000 O   0  0  0  0  0  0  0  0  0  0  0  0
    3.3523   -1.1104    0.0000 C   0  0  0  0  0  0  0  0  0  0  0  0
    4.0668   -1.5229    0.0000 F   0  0  0  0  0  0  0  0  0  0  0  0
    2.6378   -1.5229    0.0000 C   0  0  0  0  0  0  0  0  0  0  0  0
    1.9233   -1.1104    0.0000 C   0  0  0  0  0  0  0  0  0  0  0  0
    1.4358   -2.7631    0.0000 C   0  0  0  0  0  0  0  0  0  0  0  0
    1.1809   -3.5477    0.0000 N   0  0  0  0  0  0  0  0  0  0  0  0
  1  2  1  0  0  0  0
  2  3  1  0  0  0  0
  2  4  1  0  0  0  0
  4  5  1  0  0  0  0
  5  6  1  0  0  0  0
  6  7  4  0  0  0  0
  7  8  4  0  0  0  0
  8  9  4  0  0  0  0
  9 10  1  0  0  0  0
 10 11  4  0  0  0  0
 11 12  4  0  0  0  0
 12 13  1  0  0  0  0
 12 14  4  0  0  0  0
 14 15  4  0  0  0  0
 15 16  4  0  0  0  0
 16 17  1  0  0  0  0
 17 18  2  0  0  0  0
 17 19  1  0  0  0  0
 19 20  1  0  0  0  0
 20 21  1  0  0  0  0
 20 22  2  0  0  0  0
 20 23  2  0  0  0  0
 16 24  4  0  0  0  0
 24 25  1  0  0  0  0
 24 26  4  0  0  0  0
 26 27  4  0  0  0  0
 10 27  4  0  0  0  0
 14 27  4  0  0  0  0
  9 28  4  0  0  0  0
 28 29  4  0  0  0  0
  6 29  4  0  0  0  0
M  END
>  <CdId>
629

>  <Mol Weight>
419.47

>  <Formula>
C20H22FN3O4S

>  <Molecule ChEMBL ID>
CHEMBL4550045

>  <Molecule Max Phase>
None

>  <Molecular Weight>
419.48

>  <#RO5 Violations>
0

>  <AlogP>
3.1

>  <Compound Key>
47

>  <Standard Type>
IC50

>  <Standard Relation>
'='

>  <Standard Value>
1000.0

>  <Standard Units>
nM

$$$$

  Mrv2114 03112311372D          

 16 18  0  0  0  0            999 V2000
    4.7812    1.9354    0.0000 C   0  0  0  0  0  0  0  0  0  0  0  0
    4.0668    2.3479    0.0000 O   0  0  0  0  0  0  0  0  0  0  0  0
    3.3523    1.9354    0.0000 C   0  0  0  0  0  0  0  0  0  0  0  0
    3.3523    1.1104    0.0000 C   0  0  0  0  0  0  0  0  0  0  0  0
    2.6378    0.6979    0.0000 C   0  0  0  0  0  0  0  0  0  0  0  0
    1.9233    1.1104    0.0000 C   0  0  0  0  0  0  0  0  0  0  0  0
    1.1387    0.8555    0.0000 N   0  0  0  0  0  0  0  0  0  0  0  0
    0.6538    1.5229    0.0000 C   0  0  0  0  0  0  0  0  0  0  0  0
   -0.1712    1.5229    0.0000 S   0  0  0  0  0  0  0  0  0  0  0  0
   -0.5837    0.8085    0.0000 C   0  0  0  0  0  0  0  0  0  0  0  0
   -1.4087    0.8085    0.0000 C   0  0  0  0  0  0  0  0  0  0  0  0
   -2.1232    0.3960    0.0000 C   0  0  0  0  0  0  0  0  0  0  0  0
   -2.1232    1.2210    0.0000 C   0  0  0  0  0  0  0  0  0  0  0  0
    1.1387    2.1904    0.0000 N   0  0  0  0  0  0  0  0  0  0  0  0
    1.9233    1.9354    0.0000 C   0  0  0  0  0  0  0  0  0  0  0  0
    2.6378    2.3479    0.0000 C   0  0  0  0  0  0  0  0  0  0  0  0
  1  2  1  0  0  0  0
  2  3  1  0  0  0  0
  3  4  4  0  0  0  0
  4  5  4  0  0  0  0
  5  6  4  0  0  0  0
  6  7  4  0  0  0  0
  7  8  4  0  0  0  0
  8  9  1  0  0  0  0
  9 10  1  0  0  0  0
 10 11  1  0  0  0  0
 11 12  1  0  0  0  0
 12 13  1  0  0  0  0
 11 13  1  0  0  0  0
  8 14  4  0  0  0  0
 14 15  4  0  0  0  0
  6 15  4  0  0  0  0
 15 16  4  0  0  0  0
  3 16  4  0  0  0  0
M  STY  1   1 DAT
M  SAL   1  1   7
M  SDT   1 MRV_IMPLICIT_H                                        
M  SDD   1     0.0000    0.0000    DR    ALL  0       0  
M  SED   1 IMPL_H1
M  END
>  <CdId>
630

>  <Mol Weight>
234.32

>  <Formula>
C12H14N2OS

>  <Molecule ChEMBL ID>
CHEMBL2018911

>  <Molecule Max Phase>
None

>  <Molecular Weight>
234.32

>  <#RO5 Violations>
0

>  <AlogP>
3.07

>  <Compound Key>
9

>  <Standard Type>
IC50

>  <Standard Relation>
'>'

>  <Standard Value>
50000.0

>  <Standard Units>
nM

$$$$

  Mrv2114 03112311372D          

 33 36  0  0  1  0            999 V2000
   11.9259    3.5854    0.0000 C   0  0  0  0  0  0  0  0  0  0  0  0
   11.2115    3.1729    0.0000 O   0  0  0  0  0  0  0  0  0  0  0  0
   10.4970    3.5854    0.0000 C   0  0  0  0  0  0  0  0  0  0  0  0
    9.7825    3.1729    0.0000 C   0  0  0  0  0  0  0  0  0  0  0  0
    9.0681    3.5854    0.0000 C   0  0  0  0  0  0  0  0  0  0  0  0
    8.3536    3.1729    0.0000 C   0  0  1  0  0  0  0  0  0  0  0  0
    8.3536    2.3479    0.0000 O   0  0  0  0  0  0  0  0  0  0  0  0
    7.6391    3.5854    0.0000 C   0  0  0  0  0  0  0  0  0  0  0  0
    6.9246    3.1729    0.0000 N   0  0  0  0  0  0  0  0  0  0  0  0
    6.9246    2.3479    0.0000 C   0  0  0  0  0  0  0  0  0  0  0  0
    6.2102    1.9354    0.0000 C   0  0  0  0  0  0  0  0  0  0  0  0
    5.4957    2.3479    0.0000 N   0  0  0  0  0  0  0  0  0  0  0  0
    4.7812    1.9354    0.0000 C   0  0  0  0  0  0  0  0  0  0  0  0
    4.0668    2.3479    0.0000 C   0  0  2  0  0  0  0  0  0  0  0  0
    4.0668    3.1729    0.0000 O   0  0  0  0  0  0  0  0  0  0  0  0
    3.3523    1.9354    0.0000 C   0  0  0  0  0  0  0  0  0  0  0  0
    3.3523    1.1104    0.0000 C   0  0  0  0  0  0  0  0  0  0  0  0
    2.6378    0.6979    0.0000 C   0  0  0  0  0  0  0  0  0  0  0  0
    1.9233    1.1104    0.0000 C   0  0  0  0  0  0  0  0  0  0  0  0
    1.9233    1.9354    0.0000 C   0  0  0  0  0  0  0  0  0  0  0  0
    2.6378    2.3479    0.0000 C   0  0  0  0  0  0  0  0  0  0  0  0
    2.6378    3.1729    0.0000 C   0  0  0  0  0  0  0  0  0  0  0  0
    1.1387    2.1904    0.0000 C   0  0  0  0  0  0  0  0  0  0  0  0
    0.6538    1.5229    0.0000 O   0  0  0  0  0  0  0  0  0  0  0  0
    1.1387    0.8555    0.0000 C   0  0  0  0  0  0  0  0  0  0  0  0
    0.8838    0.0709    0.0000 O   0  0  0  0  0  0  0  0  0  0  0  0
    5.4957    3.1729    0.0000 C   0  0  0  0  0  0  0  0  0  0  0  0
    6.2102    3.5854    0.0000 C   0  0  0  0  0  0  0  0  0  0  0  0
    9.0681    4.4104    0.0000 N   0  0  0  0  0  0  0  0  0  0  0  0
    9.7825    4.8229    0.0000 C   0  0  0  0  0  0  0  0  0  0  0  0
   10.4970    4.4104    0.0000 C   0  0  0  0  0  0  0  0  0  0  0  0
   11.2115    4.8229    0.0000 C   0  0  0  0  0  0  0  0  0  0  0  0
   11.9259    5.2354    0.0000 N   0  0  0  0  0  0  0  0  0  0  0  0
  1  2  1  0  0  0  0
  2  3  1  0  0  0  0
  3  4  4  0  0  0  0
  4  5  4  0  0  0  0
  6  5  1  0  0  0  0
  6  7  1  1  0  0  0
  6  8  1  0  0  0  0
  8  9  1  0  0  0  0
  9 10  1  0  0  0  0
 10 11  1  0  0  0  0
 11 12  1  0  0  0  0
 12 13  1  0  0  0  0
 14 13  1  0  0  0  0
 14 15  1  1  0  0  0
 14 16  1  0  0  0  0
 16 17  4  0  0  0  0
 17 18  4  0  0  0  0
 18 19  4  0  0  0  0
 19 20  4  0  0  0  0
 20 21  4  0  0  0  0
 16 21  4  0  0  0  0
 21 22  1  0  0  0  0
 20 23  1  0  0  0  0
 23 24  1  0  0  0  0
 24 25  1  0  0  0  0
 19 25  1  0  0  0  0
 25 26  2  0  0  0  0
 12 27  1  0  0  0  0
 27 28  1  0  0  0  0
  9 28  1  0  0  0  0
  5 29  4  0  0  0  0
 29 30  4  0  0  0  0
 30 31  4  0  0  0  0
  3 31  4  0  0  0  0
 31 32  1  0  0  0  0
 32 33  3  0  0  0  0
M  END
>  <CdId>
631

>  <Mol Weight>
452.511

>  <Formula>
C24H28N4O5

>  <Molecule ChEMBL ID>
CHEMBL3612810

>  <Molecule Max Phase>
None

>  <Molecular Weight>
452.51

>  <#RO5 Violations>
0

>  <AlogP>
1.33

>  <Compound Key>
(R,S)-28

>  <Standard Type>
IC50

>  <Standard Relation>
'>'

>  <Standard Value>
50000.0

>  <Standard Units>
nM

$$$$

  Mrv2114 03112311372D          

 35 39  0  0  0  0            999 V2000
    0.0000    0.0000    0.0000 Cl  0  0  0  0  0  0  0  0  0  0  0  0
    9.9171   -0.7690    0.0000 N   0  0  0  0  0  0  0  0  0  0  0  0
    9.2026   -0.3565    0.0000 C   0  0  0  0  0  0  0  0  0  0  0  0
    9.2026    0.4685    0.0000 C   0  0  0  0  0  0  0  0  0  0  0  0
    8.4881    0.8810    0.0000 C   0  0  0  0  0  0  0  0  0  0  0  0
    7.7737    0.4685    0.0000 C   0  0  0  0  0  0  0  0  0  0  0  0
    7.7737   -0.3565    0.0000 C   0  0  0  0  0  0  0  0  0  0  0  0
    7.0592   -0.7690    0.0000 C   0  0  0  0  0  0  0  0  0  0  0  0
    7.0592   -1.5940    0.0000 C   0  0  0  0  0  0  0  0  0  0  0  0
    6.3447   -2.0065    0.0000 C   0  0  0  0  0  0  0  0  0  0  0  0
    5.6303   -1.5940    0.0000 C   0  0  0  0  0  0  0  0  0  0  0  0
    4.8456   -1.8490    0.0000 N   0  0  0  0  0  0  0  0  0  0  0  0
    4.3607   -1.1815    0.0000 C   0  0  0  0  0  0  0  0  0  0  0  0
    3.5357   -1.1815    0.0000 C   0  0  0  0  0  0  0  0  0  0  0  0
    3.1232   -0.4671    0.0000 C   0  0  0  0  0  0  0  0  0  0  0  0
    2.2982   -0.4671    0.0000 C   0  0  0  0  0  0  0  0  0  0  0  0
    1.8857   -1.1815    0.0000 C   0  0  0  0  0  0  0  0  0  0  0  0
    2.2982   -1.8960    0.0000 N   0  0  0  0  0  0  0  0  0  0  0  0
    3.1232   -1.8960    0.0000 C   0  0  0  0  0  0  0  0  0  0  0  0
    3.5357   -2.6105    0.0000 N   0  0  0  0  0  0  0  0  0  0  0  0
    4.8456   -0.5141    0.0000 N   0  0  0  0  0  0  0  0  0  0  0  0
    4.5907    0.2705    0.0000 C   0  0  0  0  0  0  0  0  0  0  0  0
    3.7837    0.4420    0.0000 C   0  0  0  0  0  0  0  0  0  0  0  0
    3.5288    1.2267    0.0000 C   0  0  0  0  0  0  0  0  0  0  0  0
    4.0808    1.8398    0.0000 C   0  0  0  0  0  0  0  0  0  0  0  0
    3.8259    2.6244    0.0000 C   0  0  0  0  0  0  0  0  0  0  0  0
    4.6105    2.8793    0.0000 N   0  0  0  0  0  0  0  0  0  0  0  0
    3.0413    2.3694    0.0000 C   0  0  0  0  0  0  0  0  0  0  0  0
    2.7863    3.1541    0.0000 C   0  0  0  0  0  0  0  0  0  0  0  0
    3.5709    3.4090    0.0000 C   0  0  0  0  0  0  0  0  0  0  0  0
    4.8878    1.6682    0.0000 C   0  0  0  0  0  0  0  0  0  0  0  0
    5.1427    0.8836    0.0000 C   0  0  0  0  0  0  0  0  0  0  0  0
    5.6303   -0.7690    0.0000 C   0  0  0  0  0  0  0  0  0  0  0  0
    6.3447   -0.3565    0.0000 N   0  0  0  0  0  0  0  0  0  0  0  0
    8.4881   -0.7690    0.0000 C   0  0  0  0  0  0  0  0  0  0  0  0
  2  3  1  0  0  0  0
  3  4  4  0  0  0  0
  4  5  4  0  0  0  0
  5  6  4  0  0  0  0
  6  7  4  0  0  0  0
  7  8  1  0  0  0  0
  8  9  4  0  0  0  0
  9 10  4  0  0  0  0
 10 11  4  0  0  0  0
 11 12  4  0  0  0  0
 12 13  4  0  0  0  0
 13 14  1  0  0  0  0
 14 15  4  0  0  0  0
 15 16  4  0  0  0  0
 16 17  4  0  0  0  0
 17 18  4  0  0  0  0
 18 19  4  0  0  0  0
 14 19  4  0  0  0  0
 19 20  1  0  0  0  0
 13 21  4  0  0  0  0
 21 22  1  0  0  0  0
 22 23  4  0  0  0  0
 23 24  4  0  0  0  0
 24 25  4  0  0  0  0
 25 26  1  0  0  0  0
 26 27  1  0  0  0  0
 26 28  1  0  0  0  0
 28 29  1  0  0  0  0
 29 30  1  0  0  0  0
 26 30  1  0  0  0  0
 25 31  4  0  0  0  0
 31 32  4  0  0  0  0
 22 32  4  0  0  0  0
 21 33  4  0  0  0  0
 11 33  4  0  0  0  0
 33 34  4  0  0  0  0
  8 34  4  0  0  0  0
  7 35  4  0  0  0  0
  3 35  4  0  0  0  0
M  END
>  <CdId>
632

>  <Mol Weight>
484.0

>  <Formula>
C27H26ClN7

>  <Molecule ChEMBL ID>
CHEMBL4574111

>  <Molecule Max Phase>
None

>  <Molecular Weight>
484.01

>  <#RO5 Violations>
0

>  <AlogP>
4.65

>  <Compound Key>
23

>  <Standard Type>
IC50

>  <Standard Relation>
'>'

>  <Standard Value>
20000.0

>  <Standard Units>
nM

$$$$

  Mrv2114 03112311372D          

 40 44  0  0  1  0            999 V2000
    2.1434   -1.2375    0.0000 C   0  0  0  0  0  0  0  0  0  0  0  0
    1.4289   -1.6500    0.0000 C   0  0  0  0  0  0  0  0  0  0  0  0
    1.4289   -2.4750    0.0000 C   0  0  0  0  0  0  0  0  0  0  0  0
    0.7145   -2.8875    0.0000 C   0  0  0  0  0  0  0  0  0  0  0  0
    0.0000   -2.4750    0.0000 C   0  0  0  0  0  0  0  0  0  0  0  0
    0.0000   -1.6500    0.0000 C   0  0  0  0  0  0  0  0  0  0  0  0
    0.7145   -1.2375    0.0000 C   0  0  0  0  0  0  0  0  0  0  0  0
    0.7145   -0.4125    0.0000 C   0  0  1  0  0  0  0  0  0  0  0  0
    0.0000    0.0000    0.0000 C   0  0  2  0  0  0  0  0  0  0  0  0
   -0.7846   -0.2549    0.0000 C   0  0  0  0  0  0  0  0  0  0  0  0
   -1.2695    0.4125    0.0000 N   0  0  0  0  0  0  0  0  0  0  0  0
   -2.0945    0.4125    0.0000 C   0  0  0  0  0  0  0  0  0  0  0  0
   -2.5795   -0.2549    0.0000 N   0  0  0  0  0  0  0  0  0  0  0  0
   -3.3641   -0.0000    0.0000 C   0  0  0  0  0  0  0  0  0  0  0  0
   -4.0315   -0.4849    0.0000 O   0  0  0  0  0  0  0  0  0  0  0  0
   -3.3641    0.8250    0.0000 C   0  0  0  0  0  0  0  0  0  0  0  0
   -2.5795    1.0799    0.0000 O   0  0  0  0  0  0  0  0  0  0  0  0
   -0.7846    1.0799    0.0000 C   0  0  0  0  0  0  0  0  0  0  0  0
    0.0000    0.8250    0.0000 C   0  0  1  0  0  0  0  0  0  0  0  0
    0.7145    1.2375    0.0000 C   0  0  0  0  0  0  0  0  0  0  0  0
    1.4289    0.8250    0.0000 C   0  0  0  0  0  0  0  0  0  0  0  0
    1.4289    0.0000    0.0000 C   0  0  2  0  0  0  0  0  0  0  0  0
    2.1434   -0.4125    0.0000 O   0  0  0  0  0  0  0  0  0  0  0  0
    2.8579    0.0000    0.0000 C   0  0  2  0  0  0  0  0  0  0  0  0
    2.8579    0.8250    0.0000 C   0  0  0  0  0  0  0  0  0  0  0  0
    3.5724    1.2375    0.0000 O   0  0  0  0  0  0  0  0  0  0  0  0
    3.5724   -0.4125    0.0000 C   0  0  0  0  0  0  0  0  0  0  0  0
    4.2868    0.0000    0.0000 C   0  0  0  0  0  0  0  0  0  0  0  0
    5.0013   -0.4125    0.0000 C   0  0  0  0  0  0  0  0  0  0  0  0
    5.7158    0.0000    0.0000 C   0  0  0  0  0  0  0  0  0  0  0  0
    6.4302    0.4125    0.0000 F   0  0  0  0  0  0  0  0  0  0  0  0
    6.1283   -0.7145    0.0000 F   0  0  0  0  0  0  0  0  0  0  0  0
    5.3033    0.7145    0.0000 F   0  0  0  0  0  0  0  0  0  0  0  0
    5.0013   -1.2375    0.0000 C   0  0  0  0  0  0  0  0  0  0  0  0
    4.2868   -1.6500    0.0000 C   0  0  0  0  0  0  0  0  0  0  0  0
    4.2868   -2.4750    0.0000 C   0  0  0  0  0  0  0  0  0  0  0  0
    4.2868   -3.3000    0.0000 F   0  0  0  0  0  0  0  0  0  0  0  0
    3.4618   -2.4750    0.0000 F   0  0  0  0  0  0  0  0  0  0  0  0
    5.1118   -2.4750    0.0000 F   0  0  0  0  0  0  0  0  0  0  0  0
    3.5724   -1.2375    0.0000 C   0  0  0  0  0  0  0  0  0  0  0  0
  1  2  1  0  0  0  0
  2  3  4  0  0  0  0
  3  4  4  0  0  0  0
  4  5  4  0  0  0  0
  5  6  4  0  0  0  0
  6  7  4  0  0  0  0
  2  7  4  0  0  0  0
  8  7  1  1  0  0  0
  8  9  1  0  0  0  0
  9 10  1  6  0  0  0
 10 11  1  0  0  0  0
 11 12  1  0  0  0  0
 12 13  2  0  0  0  0
 13 14  1  0  0  0  0
 14 15  2  0  0  0  0
 14 16  1  0  0  0  0
 16 17  1  0  0  0  0
 12 17  1  0  0  0  0
 11 18  1  0  0  0  0
 19 18  1  1  0  0  0
  9 19  1  0  0  0  0
 19 20  1  0  0  0  0
 20 21  1  0  0  0  0
 22 21  1  0  0  0  0
  8 22  1  0  0  0  0
 22 23  1  6  0  0  0
 24 23  1  6  0  0  0
 24 25  1  0  0  0  0
 25 26  1  0  0  0  0
 24 27  1  0  0  0  0
 27 28  4  0  0  0  0
 28 29  4  0  0  0  0
 29 30  1  0  0  0  0
 30 31  1  0  0  0  0
 30 32  1  0  0  0  0
 30 33  1  0  0  0  0
 29 34  4  0  0  0  0
 34 35  4  0  0  0  0
 35 36  1  0  0  0  0
 36 37  1  0  0  0  0
 36 38  1  0  0  0  0
 36 39  1  0  0  0  0
 35 40  4  0  0  0  0
 27 40  4  0  0  0  0
M  END
>  <CdId>
633

>  <Mol Weight>
570.532

>  <Formula>
C28H28F6N2O4

>  <Molecule ChEMBL ID>
CHEMBL2402572

>  <Molecule Max Phase>
None

>  <Molecular Weight>
570.53

>  <#RO5 Violations>
2

>  <AlogP>
5.49

>  <Compound Key>
3

>  <Standard Type>
IC50

>  <Standard Relation>
'='

>  <Standard Value>
21000.0

>  <Standard Units>
nM

$$$$

  Mrv2114 03112311372D          

 32 36  0  0  0  0            999 V2000
    9.0681   -0.5396    0.0000 F   0  0  0  0  0  0  0  0  0  0  0  0
    8.3536   -0.1271    0.0000 C   0  0  0  0  0  0  0  0  0  0  0  0
    7.6391   -0.5396    0.0000 C   0  0  0  0  0  0  0  0  0  0  0  0
    6.9246   -0.1271    0.0000 C   0  0  0  0  0  0  0  0  0  0  0  0
    6.9246    0.6979    0.0000 C   0  0  0  0  0  0  0  0  0  0  0  0
    6.2102    1.1104    0.0000 N   0  0  0  0  0  0  0  0  0  0  0  0
    5.4957    0.6979    0.0000 C   0  0  0  0  0  0  0  0  0  0  0  0
    4.7812    1.1104    0.0000 C   0  0  0  0  0  0  0  0  0  0  0  0
    4.7812    1.9354    0.0000 N   0  0  0  0  0  0  0  0  0  0  0  0
    4.0668    2.3479    0.0000 C   0  0  0  0  0  0  0  0  0  0  0  0
    3.3523    1.9354    0.0000 C   0  0  0  0  0  0  0  0  0  0  0  0
    3.3523    1.1104    0.0000 C   0  0  0  0  0  0  0  0  0  0  0  0
    2.6378    0.6979    0.0000 C   0  0  0  0  0  0  0  0  0  0  0  0
    1.9233    1.1104    0.0000 N   0  0  0  0  0  0  0  0  0  0  0  0
    1.1387    0.8555    0.0000 C   0  0  0  0  0  0  0  0  0  0  0  0
    0.8838    0.0709    0.0000 C   0  0  0  0  0  0  0  0  0  0  0  0
    0.0768   -0.1006    0.0000 C   0  0  0  0  0  0  0  0  0  0  0  0
   -0.5363   -0.6527    0.0000 C   0  0  0  0  0  0  0  0  0  0  0  0
   -0.7078    0.1543    0.0000 C   0  0  0  0  0  0  0  0  0  0  0  0
    0.6538    1.5229    0.0000 N   0  0  0  0  0  0  0  0  0  0  0  0
    1.1387    2.1904    0.0000 N   0  0  0  0  0  0  0  0  0  0  0  0
    1.9233    1.9354    0.0000 C   0  0  0  0  0  0  0  0  0  0  0  0
    2.6378    2.3479    0.0000 C   0  0  0  0  0  0  0  0  0  0  0  0
    2.6378    3.1729    0.0000 C   0  0  0  0  0  0  0  0  0  0  0  0
    2.6378    3.9979    0.0000 F   0  0  0  0  0  0  0  0  0  0  0  0
    3.4628    3.1729    0.0000 F   0  0  0  0  0  0  0  0  0  0  0  0
    1.8128    3.1729    0.0000 F   0  0  0  0  0  0  0  0  0  0  0  0
    5.4957    2.3479    0.0000 C   0  0  0  0  0  0  0  0  0  0  0  0
    6.2102    1.9354    0.0000 C   0  0  0  0  0  0  0  0  0  0  0  0
    7.6391    1.1104    0.0000 C   0  0  0  0  0  0  0  0  0  0  0  0
    7.6391    1.9354    0.0000 F   0  0  0  0  0  0  0  0  0  0  0  0
    8.3536    0.6979    0.0000 C   0  0  0  0  0  0  0  0  0  0  0  0
  1  2  1  0  0  0  0
  2  3  4  0  0  0  0
  3  4  4  0  0  0  0
  4  5  4  0  0  0  0
  5  6  1  0  0  0  0
  6  7  1  0  0  0  0
  7  8  1  0  0  0  0
  8  9  1  0  0  0  0
  9 10  1  0  0  0  0
 10 11  1  0  0  0  0
 11 12  4  0  0  0  0
 12 13  4  0  0  0  0
 13 14  4  0  0  0  0
 14 15  4  0  0  0  0
 15 16  1  0  0  0  0
 16 17  1  0  0  0  0
 17 18  1  0  0  0  0
 18 19  1  0  0  0  0
 17 19  1  0  0  0  0
 15 20  4  0  0  0  0
 20 21  4  0  0  0  0
 21 22  4  0  0  0  0
 14 22  4  0  0  0  0
 22 23  4  0  0  0  0
 11 23  4  0  0  0  0
 23 24  1  0  0  0  0
 24 25  1  0  0  0  0
 24 26  1  0  0  0  0
 24 27  1  0  0  0  0
  9 28  1  0  0  0  0
 28 29  1  0  0  0  0
  6 29  1  0  0  0  0
  5 30  4  0  0  0  0
 30 31  1  0  0  0  0
 30 32  4  0  0  0  0
  2 32  4  0  0  0  0
M  END
>  <CdId>
634

>  <Mol Weight>
451.445

>  <Formula>
C22H22F5N5

>  <Molecule ChEMBL ID>
CHEMBL3926416

>  <Molecule Max Phase>
None

>  <Molecular Weight>
451.44

>  <#RO5 Violations>
0

>  <AlogP>
4.3

>  <Compound Key>
27; JNJ-46356479

>  <Standard Type>
IC50

>  <Standard Relation>
'>'

>  <Standard Value>
20000.0

>  <Standard Units>
nM

$$$$

  Mrv2114 03112311372D          

  8  7  0  0  0  0            999 V2000
    1.2375    2.1434    0.0000 C   0  0  0  0  0  0  0  0  0  0  0  0
    1.6500    1.4289    0.0000 C   0  0  0  0  0  0  0  0  0  0  0  0
    1.2375    0.7145    0.0000 C   0  0  0  0  0  0  0  0  0  0  0  0
    0.5230    1.1270    0.0000 C   0  0  0  0  0  0  0  0  0  0  0  0
    1.9520    0.3020    0.0000 C   0  0  0  0  0  0  0  0  0  0  0  0
    0.8250    0.0000    0.0000 C   0  0  0  0  0  0  0  0  0  0  0  0
    1.2375   -0.7145    0.0000 O   0  0  0  0  0  0  0  0  0  0  0  0
    0.0000    0.0000    0.0000 O   0  0  0  0  0  0  0  0  0  0  0  0
  1  2  1  0  0  0  0
  2  3  1  0  0  0  0
  3  4  1  0  0  0  0
  3  5  1  0  0  0  0
  3  6  1  0  0  0  0
  6  7  2  0  0  0  0
  6  8  1  0  0  0  0
M  END
>  <CdId>
635

>  <Mol Weight>
116.16

>  <Formula>
C6H12O2

>  <Molecule ChEMBL ID>
CHEMBL286013

>  <Molecule Name>
DIMEBUTIC ACID

>  <Molecule Max Phase>
2

>  <Molecular Weight>
116.16

>  <#RO5 Violations>
0

>  <AlogP>
1.51

>  <Compound Key>
10; HST5040A

>  <Standard Type>
IC50

>  <Standard Relation>
'>'

>  <Standard Value>
1.0E7

>  <Standard Units>
nM

$$$$

  Mrv2114 03112311372D          

 35 38  0  0  1  0            999 V2000
    2.8882   -3.2241    0.0000 C   0  0  0  0  0  0  0  0  0  0  0  0
    2.1738   -3.6366    0.0000 C   0  0  2  0  0  0  0  0  0  0  0  0
    1.4593   -3.2241    0.0000 C   0  0  0  0  0  0  0  0  0  0  0  0
    0.7448   -3.6366    0.0000 C   0  0  0  0  0  0  0  0  0  0  0  0
    0.0303   -3.2241    0.0000 C   0  0  0  0  0  0  0  0  0  0  0  0
    0.0303   -2.3991    0.0000 C   0  0  0  0  0  0  0  0  0  0  0  0
   -0.6841   -1.9866    0.0000 C   0  0  0  0  0  0  0  0  0  0  0  0
   -1.3986   -1.5741    0.0000 F   0  0  0  0  0  0  0  0  0  0  0  0
   -1.0966   -2.7010    0.0000 F   0  0  0  0  0  0  0  0  0  0  0  0
   -0.2716   -1.2721    0.0000 F   0  0  0  0  0  0  0  0  0  0  0  0
    0.7448   -1.9866    0.0000 C   0  0  0  0  0  0  0  0  0  0  0  0
    1.4593   -2.3991    0.0000 C   0  0  0  0  0  0  0  0  0  0  0  0
    2.1738   -1.9866    0.0000 C   0  0  0  0  0  0  0  0  0  0  0  0
    2.8882   -1.5741    0.0000 F   0  0  0  0  0  0  0  0  0  0  0  0
    2.5863   -2.7010    0.0000 F   0  0  0  0  0  0  0  0  0  0  0  0
    1.7613   -1.2721    0.0000 F   0  0  0  0  0  0  0  0  0  0  0  0
    2.1738   -4.4616    0.0000 N   0  0  0  0  0  0  0  0  0  0  0  0
    2.8412   -4.9465    0.0000 C   0  0  0  0  0  0  0  0  0  0  0  0
    2.5863   -5.7311    0.0000 C   0  0  0  0  0  0  0  0  0  0  0  0
    3.0712   -6.3986    0.0000 N   0  0  0  0  0  0  0  0  0  0  0  0
    2.7356   -7.1522    0.0000 C   0  0  0  0  0  0  0  0  0  0  0  0
    1.9151   -7.2385    0.0000 O   0  0  0  0  0  0  0  0  0  0  0  0
    3.2205   -7.8197    0.0000 C   0  0  0  0  0  0  0  0  0  0  0  0
    4.0455   -7.8197    0.0000 N   0  0  0  0  0  0  0  0  0  0  0  0
    4.3005   -8.6043    0.0000 N   0  0  0  0  0  0  0  0  0  0  0  0
    3.6330   -9.0892    0.0000 C   0  0  0  0  0  0  0  0  0  0  0  0
    3.6330   -9.9142    0.0000 C   0  0  0  0  0  0  0  0  0  0  0  0
    4.3475  -10.3267    0.0000 C   0  0  0  0  0  0  0  0  0  0  0  0
    4.3475  -11.1517    0.0000 C   0  0  0  0  0  0  0  0  0  0  0  0
    3.6330  -11.5642    0.0000 C   0  0  0  0  0  0  0  0  0  0  0  0
    2.9186  -11.1517    0.0000 C   0  0  0  0  0  0  0  0  0  0  0  0
    2.9186  -10.3267    0.0000 N   0  0  0  0  0  0  0  0  0  0  0  0
    2.9656   -8.6043    0.0000 S   0  0  0  0  0  0  0  0  0  0  0  0
    1.7613   -5.7311    0.0000 C   0  0  0  0  0  0  0  0  0  0  0  0
    1.5063   -4.9465    0.0000 N   0  0  0  0  0  0  0  0  0  0  0  0
  2  1  1  1  0  0  0
  2  3  1  0  0  0  0
  3  4  4  0  0  0  0
  4  5  4  0  0  0  0
  5  6  4  0  0  0  0
  6  7  1  0  0  0  0
  7  8  1  0  0  0  0
  7  9  1  0  0  0  0
  7 10  1  0  0  0  0
  6 11  4  0  0  0  0
 11 12  4  0  0  0  0
  3 12  4  0  0  0  0
 12 13  1  0  0  0  0
 13 14  1  0  0  0  0
 13 15  1  0  0  0  0
 13 16  1  0  0  0  0
  2 17  1  0  0  0  0
 17 18  4  0  0  0  0
 18 19  4  0  0  0  0
 19 20  1  0  0  0  0
 20 21  1  0  0  0  0
 21 22  2  0  0  0  0
 21 23  1  0  0  0  0
 23 24  4  0  0  0  0
 24 25  4  0  0  0  0
 25 26  4  0  0  0  0
 26 27  1  0  0  0  0
 27 28  4  0  0  0  0
 28 29  4  0  0  0  0
 29 30  4  0  0  0  0
 30 31  4  0  0  0  0
 31 32  4  0  0  0  0
 27 32  4  0  0  0  0
 26 33  4  0  0  0  0
 23 33  4  0  0  0  0
 19 34  4  0  0  0  0
 34 35  4  0  0  0  0
 17 35  4  0  0  0  0
M  END
>  <CdId>
636

>  <Mol Weight>
512.43

>  <Formula>
C21H14F6N6OS

>  <Molecule ChEMBL ID>
CHEMBL5094827

>  <Molecule Max Phase>
None

>  <Molecular Weight>
512.44

>  <#RO5 Violations>
2

>  <AlogP>
5.7

>  <Compound Key>
Compound 123

>  <Standard Type>
IC50

>  <Standard Relation>
'='

>  <Standard Value>
33300.0

>  <Standard Units>
nM

$$$$

  Mrv2114 03112311372D          

 36 39  0  0  1  0            999 V2000
   -0.7448   -3.6366    0.0000 C   0  0  0  0  0  0  0  0  0  0  0  0
   -0.7448   -4.4616    0.0000 C   0  0  0  0  0  0  0  0  0  0  0  0
   -0.0774   -4.9465    0.0000 N   0  0  0  0  0  0  0  0  0  0  0  0
   -0.3323   -5.7311    0.0000 N   0  0  0  0  0  0  0  0  0  0  0  0
    0.1526   -6.3986    0.0000 C   0  0  2  0  0  0  0  0  0  0  0  0
   -0.1830   -7.1522    0.0000 C   0  0  0  0  0  0  0  0  0  0  0  0
    0.9731   -6.3123    0.0000 C   0  0  0  0  0  0  0  0  0  0  0  0
    1.3086   -5.5586    0.0000 C   0  0  0  0  0  0  0  0  0  0  0  0
    2.1291   -5.4724    0.0000 C   0  0  0  0  0  0  0  0  0  0  0  0
    2.6140   -6.1398    0.0000 C   0  0  0  0  0  0  0  0  0  0  0  0
    3.4345   -6.0536    0.0000 C   0  0  0  0  0  0  0  0  0  0  0  0
    4.2550   -5.9674    0.0000 F   0  0  0  0  0  0  0  0  0  0  0  0
    3.3483   -5.2331    0.0000 F   0  0  0  0  0  0  0  0  0  0  0  0
    3.5208   -6.8741    0.0000 F   0  0  0  0  0  0  0  0  0  0  0  0
    2.2785   -6.8935    0.0000 C   0  0  0  0  0  0  0  0  0  0  0  0
    1.4580   -6.9798    0.0000 C   0  0  0  0  0  0  0  0  0  0  0  0
    1.1225   -7.7334    0.0000 C   0  0  0  0  0  0  0  0  0  0  0  0
    0.7869   -8.4871    0.0000 F   0  0  0  0  0  0  0  0  0  0  0  0
    0.3688   -7.3979    0.0000 F   0  0  0  0  0  0  0  0  0  0  0  0
    1.8761   -8.0690    0.0000 F   0  0  0  0  0  0  0  0  0  0  0  0
   -1.1573   -5.7311    0.0000 C   0  0  0  0  0  0  0  0  0  0  0  0
   -1.4123   -4.9465    0.0000 C   0  0  0  0  0  0  0  0  0  0  0  0
   -2.1969   -4.6916    0.0000 N   0  0  0  0  0  0  0  0  0  0  0  0
   -2.8100   -5.2436    0.0000 C   0  0  0  0  0  0  0  0  0  0  0  0
   -2.6384   -6.0506    0.0000 O   0  0  0  0  0  0  0  0  0  0  0  0
   -3.5946   -4.9886    0.0000 C   0  0  0  0  0  0  0  0  0  0  0  0
   -4.2620   -5.4736    0.0000 C   0  0  0  0  0  0  0  0  0  0  0  0
   -4.9295   -4.9886    0.0000 C   0  0  0  0  0  0  0  0  0  0  0  0
   -5.7141   -5.2436    0.0000 C   0  0  0  0  0  0  0  0  0  0  0  0
   -5.8856   -6.0506    0.0000 C   0  0  0  0  0  0  0  0  0  0  0  0
   -6.6702   -6.3055    0.0000 C   0  0  0  0  0  0  0  0  0  0  0  0
   -7.2833   -5.7535    0.0000 C   0  0  0  0  0  0  0  0  0  0  0  0
   -7.1118   -4.9465    0.0000 C   0  0  0  0  0  0  0  0  0  0  0  0
   -6.3272   -4.6916    0.0000 N   0  0  0  0  0  0  0  0  0  0  0  0
   -4.6745   -4.2040    0.0000 O   0  0  0  0  0  0  0  0  0  0  0  0
   -3.8495   -4.2040    0.0000 N   0  0  0  0  0  0  0  0  0  0  0  0
  1  2  1  0  0  0  0
  2  3  4  0  0  0  0
  3  4  4  0  0  0  0
  5  4  1  0  0  0  0
  5  6  1  1  0  0  0
  5  7  1  0  0  0  0
  7  8  4  0  0  0  0
  8  9  4  0  0  0  0
  9 10  4  0  0  0  0
 10 11  1  0  0  0  0
 11 12  1  0  0  0  0
 11 13  1  0  0  0  0
 11 14  1  0  0  0  0
 10 15  4  0  0  0  0
 15 16  4  0  0  0  0
  7 16  4  0  0  0  0
 16 17  1  0  0  0  0
 17 18  1  0  0  0  0
 17 19  1  0  0  0  0
 17 20  1  0  0  0  0
  4 21  4  0  0  0  0
 21 22  4  0  0  0  0
  2 22  4  0  0  0  0
 22 23  1  0  0  0  0
 23 24  1  0  0  0  0
 24 25  2  0  0  0  0
 24 26  1  0  0  0  0
 26 27  4  0  0  0  0
 27 28  4  0  0  0  0
 28 29  1  0  0  0  0
 29 30  4  0  0  0  0
 30 31  4  0  0  0  0
 31 32  4  0  0  0  0
 32 33  4  0  0  0  0
 33 34  4  0  0  0  0
 29 34  4  0  0  0  0
 28 35  4  0  0  0  0
 35 36  4  0  0  0  0
 26 36  4  0  0  0  0
M  END
>  <CdId>
637

>  <Mol Weight>
509.412

>  <Formula>
C23H17F6N5O2

>  <Molecule ChEMBL ID>
CHEMBL5075836

>  <Molecule Max Phase>
None

>  <Molecular Weight>
509.41

>  <#RO5 Violations>
2

>  <AlogP>
6.14

>  <Compound Key>
Compound 99

>  <Standard Type>
IC50

>  <Standard Relation>
'='

>  <Standard Value>
1000.0

>  <Standard Units>
nM

$$$$

  Mrv2114 03112311372D          

 17 16  0  0  0  0            999 V2000
   -1.8080    0.9824    0.0000 C   0  0  0  0  0  0  0  0  0  0  0  0
   -1.0935    0.5699    0.0000 C   0  0  0  0  0  0  0  0  0  0  0  0
   -0.3790    0.9824    0.0000 C   0  0  0  0  0  0  0  0  0  0  0  0
   -0.3790    1.8074    0.0000 C   0  0  0  0  0  0  0  0  0  0  0  0
    0.3354    2.2199    0.0000 C   0  0  0  0  0  0  0  0  0  0  0  0
    1.0499    1.8074    0.0000 N   0  0  0  0  0  0  0  0  0  0  0  0
    1.0499    0.9824    0.0000 C   0  0  0  0  0  0  0  0  0  0  0  0
    0.3354    0.5699    0.0000 C   0  0  0  0  0  0  0  0  0  0  0  0
    0.3354   -0.2551    0.0000 C   0  0  0  0  0  0  0  0  0  0  0  0
    1.0029   -0.7400    0.0000 C   0  0  0  0  0  0  0  0  0  0  0  0
    0.7479   -1.5246    0.0000 C   0  0  0  0  0  0  0  0  0  0  0  0
   -0.0771   -1.5246    0.0000 C   0  0  0  0  0  0  0  0  0  0  0  0
   -0.5620   -2.1920    0.0000 C   0  0  0  0  0  0  0  0  0  0  0  0
   -0.2264   -2.9457    0.0000 N   0  0  0  0  0  0  0  0  0  0  0  0
   -0.3320   -0.7400    0.0000 S   0  0  0  0  0  0  0  0  0  0  0  0
    3.0535    0.0000    0.0000 Cl  0  0  0  0  0  0  0  0  0  0  0  0
    0.0000   -4.5957    0.0000 Cl  0  0  0  0  0  0  0  0  0  0  0  0
  1  2  1  0  0  0  0
  2  3  1  0  0  0  0
  3  4  4  0  0  0  0
  4  5  4  0  0  0  0
  5  6  4  0  0  0  0
  6  7  4  0  0  0  0
  7  8  4  0  0  0  0
  3  8  4  0  0  0  0
  8  9  1  0  0  0  0
  9 10  4  0  0  0  0
 10 11  4  0  0  0  0
 11 12  4  0  0  0  0
 12 13  1  0  0  0  0
 13 14  1  0  0  0  0
 12 15  4  0  0  0  0
  9 15  4  0  0  0  0
M  END
>  <CdId>
638

>  <Mol Weight>
291.23

>  <Formula>
C12H16Cl2N2S

>  <Molecule ChEMBL ID>
CHEMBL4161819

>  <Molecule Max Phase>
None

>  <Molecular Weight>
291.25

>  <#RO5 Violations>
0

>  <AlogP>
2.83

>  <Compound Key>
6i

>  <Standard Type>
IC50

>  <Standard Relation>
'='

>  <Standard Value>
1500.0

>  <Standard Units>
nM

$$$$

  Mrv2114 03112311372D          

 21 21  0  0  0  0            999 V2000
    0.0000    0.0000    0.0000 Cl  0  0  0  0  0  0  0  0  0  0  0  0
    2.0036    0.0000    0.0000 Cl  0  0  0  0  0  0  0  0  0  0  0  0
    1.8678   -1.6500    0.0000 N   0  0  0  0  0  0  0  0  0  0  0  0
    1.1534   -2.0625    0.0000 C   0  0  0  0  0  0  0  0  0  0  0  0
    1.1534   -2.8875    0.0000 C   0  0  0  0  0  0  0  0  0  0  0  0
    1.8208   -3.3724    0.0000 C   0  0  0  0  0  0  0  0  0  0  0  0
    1.5659   -4.1570    0.0000 C   0  0  0  0  0  0  0  0  0  0  0  0
    0.7409   -4.1570    0.0000 C   0  0  0  0  0  0  0  0  0  0  0  0
    0.2559   -4.8245    0.0000 C   0  0  0  0  0  0  0  0  0  0  0  0
    0.5915   -5.5782    0.0000 C   0  0  0  0  0  0  0  0  0  0  0  0
    0.1066   -6.2456    0.0000 N   0  0  0  0  0  0  0  0  0  0  0  0
   -0.7139   -6.1594    0.0000 C   0  0  0  0  0  0  0  0  0  0  0  0
   -1.0495   -5.4057    0.0000 C   0  0  0  0  0  0  0  0  0  0  0  0
   -0.5645   -4.7382    0.0000 C   0  0  0  0  0  0  0  0  0  0  0  0
   -0.9001   -3.9846    0.0000 C   0  0  0  0  0  0  0  0  0  0  0  0
   -1.7206   -3.8983    0.0000 C   0  0  0  0  0  0  0  0  0  0  0  0
   -2.0561   -3.1447    0.0000 C   0  0  0  0  0  0  0  0  0  0  0  0
   -1.5712   -2.4772    0.0000 C   0  0  0  0  0  0  0  0  0  0  0  0
   -0.7507   -2.5635    0.0000 C   0  0  0  0  0  0  0  0  0  0  0  0
   -0.4152   -3.3171    0.0000 C   0  0  0  0  0  0  0  0  0  0  0  0
    0.4859   -3.3724    0.0000 S   0  0  0  0  0  0  0  0  0  0  0  0
  3  4  1  0  0  0  0
  4  5  1  0  0  0  0
  5  6  4  0  0  0  0
  6  7  4  0  0  0  0
  7  8  4  0  0  0  0
  8  9  1  0  0  0  0
  9 10  4  0  0  0  0
 10 11  4  0  0  0  0
 11 12  4  0  0  0  0
 12 13  4  0  0  0  0
 13 14  4  0  0  0  0
  9 14  4  0  0  0  0
 14 15  1  0  0  0  0
 15 16  4  0  0  0  0
 16 17  4  0  0  0  0
 17 18  4  0  0  0  0
 18 19  4  0  0  0  0
 19 20  4  0  0  0  0
 15 20  4  0  0  0  0
  8 21  4  0  0  0  0
  5 21  4  0  0  0  0
M  END
>  <CdId>
639

>  <Mol Weight>
339.28

>  <Formula>
C16H16Cl2N2S

>  <Molecule ChEMBL ID>
CHEMBL4175869

>  <Molecule Max Phase>
None

>  <Molecular Weight>
339.29

>  <#RO5 Violations>
0

>  <AlogP>
3.94

>  <Compound Key>
6l

>  <Standard Type>
IC50

>  <Standard Relation>
'='

>  <Standard Value>
1100.0

>  <Standard Units>
nM

$$$$

  Mrv2114 03112311372D          

 15 13  0  0  0  0            999 V2000
    1.3740    1.9990    0.0000 C   0  0  0  0  0  0  0  0  0  0  0  0
    1.3740    1.1740    0.0000 C   0  0  0  0  0  0  0  0  0  0  0  0
    0.6595    0.7615    0.0000 C   0  0  0  0  0  0  0  0  0  0  0  0
    0.6595   -0.0635    0.0000 C   0  0  0  0  0  0  0  0  0  0  0  0
    1.3740   -0.4760    0.0000 C   0  0  0  0  0  0  0  0  0  0  0  0
    1.3740   -1.3010    0.0000 C   0  0  0  0  0  0  0  0  0  0  0  0
    0.6595   -1.7135    0.0000 N   0  0  0  0  0  0  0  0  0  0  0  0
   -0.0550   -1.3010    0.0000 C   0  0  0  0  0  0  0  0  0  0  0  0
   -0.0550   -0.4760    0.0000 C   0  0  0  0  0  0  0  0  0  0  0  0
   -0.7694   -0.0635    0.0000 C   0  0  0  0  0  0  0  0  0  0  0  0
   -1.4839    0.3490    0.0000 C   0  0  0  0  0  0  0  0  0  0  0  0
   -2.1984    0.7615    0.0000 C   0  0  0  0  0  0  0  0  0  0  0  0
   -2.9128    0.3490    0.0000 N   0  0  0  0  0  0  0  0  0  0  0  0
    3.3776    0.0000    0.0000 Cl  0  0  0  0  0  0  0  0  0  0  0  0
    0.0000   -3.3635    0.0000 Cl  0  0  0  0  0  0  0  0  0  0  0  0
  1  2  1  0  0  0  0
  2  3  1  0  0  0  0
  3  4  1  0  0  0  0
  4  5  4  0  0  0  0
  5  6  4  0  0  0  0
  6  7  4  0  0  0  0
  7  8  4  0  0  0  0
  8  9  4  0  0  0  0
  4  9  4  0  0  0  0
  9 10  1  0  0  0  0
 10 11  3  0  0  0  0
 11 12  1  0  0  0  0
 12 13  1  0  0  0  0
M  END
>  <CdId>
640

>  <Mol Weight>
247.16

>  <Formula>
C11H16Cl2N2

>  <Molecule ChEMBL ID>
CHEMBL4171984

>  <Molecule Max Phase>
None

>  <Molecular Weight>
247.17

>  <#RO5 Violations>
0

>  <AlogP>
1.34

>  <Compound Key>
4k

>  <Standard Type>
IC50

>  <Standard Relation>
'='

>  <Standard Value>
20000.0

>  <Standard Units>
nM

$$$$

  Mrv2114 03112311372D          

 19 17  0  0  0  0            999 V2000
    0.0000    0.0000    0.0000 Cl  0  0  0  0  0  0  0  0  0  0  0  0
    2.0036    0.0000    0.0000 Cl  0  0  0  0  0  0  0  0  0  0  0  0
    0.0000   -4.2023    0.0000 Cl  0  0  0  0  0  0  0  0  0  0  0  0
    5.4581   -1.6500    0.0000 N   0  0  0  0  0  0  0  0  0  0  0  0
    4.7436   -2.0625    0.0000 C   0  0  0  0  0  0  0  0  0  0  0  0
    4.7436   -2.8875    0.0000 C   0  0  0  0  0  0  0  0  0  0  0  0
    4.7436   -3.7125    0.0000 C   0  0  0  0  0  0  0  0  0  0  0  0
    4.7436   -4.5375    0.0000 C   0  0  0  0  0  0  0  0  0  0  0  0
    5.4581   -4.9500    0.0000 C   0  0  0  0  0  0  0  0  0  0  0  0
    5.4581   -5.7750    0.0000 N   0  0  0  0  0  0  0  0  0  0  0  0
    4.7436   -6.1875    0.0000 C   0  0  0  0  0  0  0  0  0  0  0  0
    4.0291   -5.7750    0.0000 C   0  0  0  0  0  0  0  0  0  0  0  0
    4.0291   -4.9500    0.0000 C   0  0  0  0  0  0  0  0  0  0  0  0
    3.3147   -4.5375    0.0000 C   0  0  0  0  0  0  0  0  0  0  0  0
    2.6002   -4.9500    0.0000 C   0  0  0  0  0  0  0  0  0  0  0  0
    1.8857   -4.5375    0.0000 C   0  0  0  0  0  0  0  0  0  0  0  0
    1.8857   -3.7125    0.0000 C   0  0  0  0  0  0  0  0  0  0  0  0
    2.6002   -3.3000    0.0000 N   0  0  0  0  0  0  0  0  0  0  0  0
    3.3147   -3.7125    0.0000 C   0  0  0  0  0  0  0  0  0  0  0  0
  4  5  1  0  0  0  0
  5  6  1  0  0  0  0
  6  7  3  0  0  0  0
  7  8  1  0  0  0  0
  8  9  4  0  0  0  0
  9 10  4  0  0  0  0
 10 11  4  0  0  0  0
 11 12  4  0  0  0  0
 12 13  4  0  0  0  0
  8 13  4  0  0  0  0
 13 14  1  0  0  0  0
 14 15  4  0  0  0  0
 15 16  4  0  0  0  0
 16 17  4  0  0  0  0
 17 18  4  0  0  0  0
 18 19  4  0  0  0  0
 14 19  4  0  0  0  0
M  END
>  <CdId>
641

>  <Mol Weight>
318.63

>  <Formula>
C13H14Cl3N3

>  <Molecule ChEMBL ID>
CHEMBL4170930

>  <Molecule Max Phase>
None

>  <Molecular Weight>
318.63

>  <#RO5 Violations>
0

>  <AlogP>
1.45

>  <Compound Key>
4p

>  <Standard Type>
IC50

>  <Standard Relation>
'>'

>  <Standard Value>
25000.0

>  <Standard Units>
nM

$$$$

  Mrv2114 03112311372D          

 50 56  0  0  1  0            999 V2000
    4.6319    5.0066    0.0000 C   0  0  0  0  0  0  0  0  0  0  0  0
    4.2963    4.2529    0.0000 S   0  0  0  0  0  0  0  0  0  0  0  0
    4.7812    3.5854    0.0000 C   0  0  1  0  0  0  0  0  0  0  0  0
    4.0668    3.1729    0.0000 C   0  0  0  0  0  0  0  0  0  0  0  0
    3.3523    3.5854    0.0000 O   0  0  0  0  0  0  0  0  0  0  0  0
    4.0668    2.3479    0.0000 N   0  0  0  0  0  0  0  0  0  0  0  0
    3.3523    1.9354    0.0000 C   0  0  0  0  0  0  0  0  0  0  0  0
    3.3523    1.1104    0.0000 C   0  0  0  0  0  0  0  0  0  0  0  0
    2.6378    0.6979    0.0000 C   0  0  0  0  0  0  0  0  0  0  0  0
    1.9233    1.1104    0.0000 C   0  0  0  0  0  0  0  0  0  0  0  0
    1.1387    0.8555    0.0000 N   0  0  0  0  0  0  0  0  0  0  0  0
    0.6538    1.5229    0.0000 N   0  0  0  0  0  0  0  0  0  0  0  0
    1.1387    2.1904    0.0000 C   0  0  0  0  0  0  0  0  0  0  0  0
    0.8838    2.9750    0.0000 C   0  0  0  0  0  0  0  0  0  0  0  0
    0.0768    3.1465    0.0000 C   0  0  0  0  0  0  0  0  0  0  0  0
   -0.1781    3.9312    0.0000 C   0  0  0  0  0  0  0  0  0  0  0  0
    0.3739    4.5442    0.0000 C   0  0  0  0  0  0  0  0  0  0  0  0
    0.1190    5.3289    0.0000 O   0  0  0  0  0  0  0  0  0  0  0  0
   -0.6880    5.5004    0.0000 C   0  0  0  0  0  0  0  0  0  0  0  0
   -1.2400    4.8873    0.0000 C   0  0  0  0  0  0  0  0  0  0  0  0
   -0.9429    6.2850    0.0000 C   0  0  0  0  0  0  0  0  0  0  0  0
    1.1809    4.3727    0.0000 N   0  0  0  0  0  0  0  0  0  0  0  0
    1.4358    3.5881    0.0000 C   0  0  0  0  0  0  0  0  0  0  0  0
    1.9233    1.9354    0.0000 C   0  0  0  0  0  0  0  0  0  0  0  0
    2.6378    2.3479    0.0000 C   0  0  0  0  0  0  0  0  0  0  0  0
    5.3943    4.1375    0.0000 C   0  0  0  0  0  0  0  0  0  0  0  0
    6.1088    3.7250    0.0000 C   0  0  0  0  0  0  0  0  0  0  0  0
    5.9373    2.9180    0.0000 N   0  0  0  0  0  0  0  0  0  0  0  0
    6.4893    2.3049    0.0000 C   0  0  0  0  0  0  0  0  0  0  0  0
    7.2963    2.4764    0.0000 C   0  0  0  0  0  0  0  0  0  0  0  0
    7.5512    3.2611    0.0000 O   0  0  0  0  0  0  0  0  0  0  0  0
    7.8483    1.8633    0.0000 N   0  0  0  0  0  0  0  0  0  0  0  0
    8.6553    2.0349    0.0000 C   0  0  0  0  0  0  0  0  0  0  0  0
    9.2073    1.4218    0.0000 C   0  0  0  0  0  0  0  0  0  0  0  0
    8.9524    0.6372    0.0000 C   0  0  0  0  0  0  0  0  0  0  0  0
    9.5044    0.0241    0.0000 C   0  0  0  0  0  0  0  0  0  0  0  0
   10.3114    0.1956    0.0000 C   0  0  0  0  0  0  0  0  0  0  0  0
   10.8634   -0.4175    0.0000 C   0  0  0  0  0  0  0  0  0  0  0  0
   10.6085   -1.2021    0.0000 C   0  0  0  0  0  0  0  0  0  0  0  0
   11.1605   -1.8152    0.0000 C   0  0  0  0  0  0  0  0  0  0  0  0
   11.9810   -1.7290    0.0000 N   0  0  0  0  0  0  0  0  0  0  0  0
   12.3165   -2.4827    0.0000 C   0  0  0  0  0  0  0  0  0  0  0  0
   11.7034   -3.0347    0.0000 N   0  0  0  0  0  0  0  0  0  0  0  0
   11.7897   -3.8552    0.0000 C   0  0  0  0  0  0  0  0  0  0  0  0
   10.9890   -2.6222    0.0000 N   0  0  0  0  0  0  0  0  0  0  0  0
    9.8015   -1.3737    0.0000 C   0  0  0  0  0  0  0  0  0  0  0  0
    9.2495   -0.7606    0.0000 C   0  0  0  0  0  0  0  0  0  0  0  0
    8.1454    0.4656    0.0000 C   0  0  0  0  0  0  0  0  0  0  0  0
    7.5934    1.0787    0.0000 C   0  0  0  0  0  0  0  0  0  0  0  0
    5.1168    2.8318    0.0000 C   0  0  0  0  0  0  0  0  0  0  0  0
  1  2  1  0  0  0  0
  3  2  1  1  0  0  0
  3  4  1  6  0  0  0
  4  5  2  0  0  0  0
  4  6  1  0  0  0  0
  6  7  1  0  0  0  0
  7  8  4  0  0  0  0
  8  9  4  0  0  0  0
  9 10  4  0  0  0  0
 10 11  4  0  0  0  0
 11 12  4  0  0  0  0
 12 13  4  0  0  0  0
 13 14  1  0  0  0  0
 14 15  4  0  0  0  0
 15 16  4  0  0  0  0
 16 17  4  0  0  0  0
 17 18  1  0  0  0  0
 18 19  1  0  0  0  0
 19 20  1  0  0  0  0
 19 21  1  0  0  0  0
 17 22  4  0  0  0  0
 22 23  4  0  0  0  0
 14 23  4  0  0  0  0
 13 24  4  0  0  0  0
 10 24  4  0  0  0  0
 24 25  4  0  0  0  0
  7 25  4  0  0  0  0
  3 26  1  0  0  0  0
 26 27  1  0  0  0  0
 27 28  1  0  0  0  0
 28 29  1  0  0  0  0
 29 30  1  0  0  0  0
 30 31  2  0  0  0  0
 30 32  1  0  0  0  0
 32 33  1  0  0  0  0
 33 34  1  0  0  0  0
 34 35  2  0  0  0  0
 35 36  1  0  0  0  0
 36 37  4  0  0  0  0
 37 38  4  0  0  0  0
 38 39  4  0  0  0  0
 39 40  1  0  0  0  0
 40 41  4  0  0  0  0
 41 42  4  0  0  0  0
 42 43  4  0  0  0  0
 43 44  1  0  0  0  0
 43 45  4  0  0  0  0
 40 45  4  0  0  0  0
 39 46  4  0  0  0  0
 46 47  4  0  0  0  0
 36 47  4  0  0  0  0
 35 48  1  0  0  0  0
 48 49  1  0  0  0  0
 32 49  1  0  0  0  0
 28 50  1  0  0  0  0
  3 50  1  0  0  0  0
M  STY  1   1 DAT
M  SAL   1  1  11
M  SDT   1 MRV_IMPLICIT_H                                        
M  SDD   1     0.0000    0.0000    DR    ALL  0       0  
M  SED   1 IMPL_H1
M  END
>  <CdId>
642

>  <Mol Weight>
691.86

>  <Formula>
C37H41N9O3S

>  <Molecule ChEMBL ID>
CHEMBL4213970

>  <Molecule Name>
MK-8353

>  <Molecule Max Phase>
1

>  <Molecular Weight>
691.86

>  <#RO5 Violations>
2

>  <AlogP>
5.27

>  <Compound Key>
20; MK-8353

>  <Standard Type>
IC50

>  <Standard Relation>
'='

>  <Standard Value>
3500.0

>  <Standard Units>
nM

$$$$

  Mrv2114 03112311372D          

 23 26  0  0  1  0            999 V2000
    2.0070    0.7106    0.0000 O   0  0  0  0  0  0  0  0  0  0  0  0
    2.7132    1.1371    0.0000 C   0  0  2  0  0  0  0  0  0  0  0  0
    3.4356    0.7388    0.0000 C   0  0  0  0  0  0  0  0  0  0  0  0
    3.4519   -0.0860    0.0000 C   0  0  1  0  0  0  0  0  0  0  0  0
    4.1288   -0.5577    0.0000 C   0  0  0  0  0  0  0  0  0  0  0  0
    4.9322   -0.3703    0.0000 C   0  0  0  0  0  0  0  0  0  0  0  0
    5.1716    0.4192    0.0000 F   0  0  0  0  0  0  0  0  0  0  0  0
    5.4962   -0.9724    0.0000 C   0  0  0  0  0  0  0  0  0  0  0  0
    5.2568   -1.7619    0.0000 C   0  0  0  0  0  0  0  0  0  0  0  0
    4.4534   -1.9493    0.0000 C   0  0  0  0  0  0  0  0  0  0  0  0
    3.8894   -1.3472    0.0000 C   0  0  0  0  0  0  0  0  0  0  0  0
    3.0645   -1.3635    0.0000 C   0  0  0  0  0  0  0  0  0  0  0  0
    2.4068   -1.8614    0.0000 C   0  0  0  0  0  0  0  0  0  0  0  0
    1.7299   -1.3898    0.0000 N   0  0  0  0  0  0  0  0  0  0  0  0
    1.9693   -0.6003    0.0000 C   0  0  0  0  0  0  0  0  0  0  0  0
    2.7942   -0.5840    0.0000 N   0  0  0  0  0  0  0  0  0  0  0  0
    2.6969    1.9620    0.0000 C   0  0  1  0  0  0  0  0  0  0  0  0
    1.9745    2.3603    0.0000 C   0  0  0  0  0  0  0  0  0  0  0  0
    1.9582    3.1852    0.0000 C   0  0  0  0  0  0  0  0  0  0  0  0
    2.6644    3.6117    0.0000 C   0  0  2  0  0  0  0  0  0  0  0  0
    2.6481    4.4365    0.0000 O   0  0  0  0  0  0  0  0  0  0  0  0
    3.3869    3.2133    0.0000 C   0  0  0  0  0  0  0  0  0  0  0  0
    3.4031    2.3885    0.0000 C   0  0  0  0  0  0  0  0  0  0  0  0
  2  1  1  1  0  0  0
  2  3  1  0  0  0  0
  4  3  1  1  0  0  0
  4  5  1  0  0  0  0
  5  6  4  0  0  0  0
  6  7  1  0  0  0  0
  6  8  4  0  0  0  0
  8  9  4  0  0  0  0
  9 10  4  0  0  0  0
 10 11  4  0  0  0  0
  5 11  4  0  0  0  0
 11 12  1  0  0  0  0
 12 13  4  0  0  0  0
 13 14  4  0  0  0  0
 14 15  4  0  0  0  0
 15 16  4  0  0  0  0
 12 16  4  0  0  0  0
  4 16  1  0  0  0  0
  2 17  1  0  0  0  0
 17 18  1  1  0  0  0
 18 19  1  0  0  0  0
 20 19  1  0  0  0  0
 20 21  1  6  0  0  0
 20 22  1  0  0  0  0
 22 23  1  0  0  0  0
 17 23  1  0  0  0  0
M  END
>  <CdId>
643

>  <Mol Weight>
316.376

>  <Formula>
C18H21FN2O2

>  <Molecule ChEMBL ID>
CHEMBL3989951

>  <Molecule Name>
NAVOXIMOD

>  <Molecule Max Phase>
1

>  <Molecular Weight>
316.38

>  <#RO5 Violations>
0

>  <AlogP>
2.89

>  <Compound Key>
NLG-919

>  <Standard Type>
IC50

>  <Standard Relation>
'>'

>  <Standard Value>
100000.0

>  <Standard Units>
nM

$$$$

  Mrv2114 03112311372D          

 25 27  0  0  0  0            999 V2000
   -2.1434   -6.1875    0.0000 C   0  0  0  0  0  0  0  0  0  0  0  0
   -2.1434   -5.3625    0.0000 C   0  0  0  0  0  0  0  0  0  0  0  0
   -1.4289   -4.9500    0.0000 N   0  0  0  0  0  0  0  0  0  0  0  0
   -0.7145   -5.3625    0.0000 C   0  0  0  0  0  0  0  0  0  0  0  0
   -0.7145   -6.1875    0.0000 C   0  0  0  0  0  0  0  0  0  0  0  0
   -1.4289   -4.1250    0.0000 C   0  0  0  0  0  0  0  0  0  0  0  0
   -0.7145   -3.7125    0.0000 C   0  0  0  0  0  0  0  0  0  0  0  0
   -0.7145   -2.8875    0.0000 C   0  0  0  0  0  0  0  0  0  0  0  0
    0.0000   -2.4750    0.0000 C   0  0  0  0  0  0  0  0  0  0  0  0
    0.7145   -2.8875    0.0000 C   0  0  0  0  0  0  0  0  0  0  0  0
    1.4289   -2.4750    0.0000 N   0  0  0  0  0  0  0  0  0  0  0  0
    1.4289   -1.6500    0.0000 C   0  0  0  0  0  0  0  0  0  0  0  0
    0.7145   -1.2375    0.0000 C   0  0  0  0  0  0  0  0  0  0  0  0
    0.7145   -0.4125    0.0000 C   0  0  0  0  0  0  0  0  0  0  0  0
    1.4289    0.0000    0.0000 N   0  0  0  0  0  0  0  0  0  0  0  0
    2.1434   -0.4125    0.0000 C   0  0  0  0  0  0  0  0  0  0  0  0
    2.8579    0.0000    0.0000 C   0  0  0  0  0  0  0  0  0  0  0  0
    3.5724   -0.4125    0.0000 C   0  0  0  0  0  0  0  0  0  0  0  0
    4.2868   -0.0000    0.0000 Cl  0  0  0  0  0  0  0  0  0  0  0  0
    3.5724   -1.2375    0.0000 C   0  0  0  0  0  0  0  0  0  0  0  0
    2.8579   -1.6500    0.0000 C   0  0  0  0  0  0  0  0  0  0  0  0
    2.1434   -1.2375    0.0000 C   0  0  0  0  0  0  0  0  0  0  0  0
    0.7145   -3.7125    0.0000 C   0  0  0  0  0  0  0  0  0  0  0  0
    0.0000   -4.1250    0.0000 C   0  0  0  0  0  0  0  0  0  0  0  0
    0.0000   -4.9500    0.0000 O   0  0  0  0  0  0  0  0  0  0  0  0
  1  2  1  0  0  0  0
  2  3  1  0  0  0  0
  3  4  1  0  0  0  0
  4  5  1  0  0  0  0
  3  6  1  0  0  0  0
  6  7  1  0  0  0  0
  7  8  4  0  0  0  0
  8  9  4  0  0  0  0
  9 10  4  0  0  0  0
 10 11  1  0  0  0  0
 11 12  1  0  0  0  0
 12 13  4  0  0  0  0
 13 14  4  0  0  0  0
 14 15  4  0  0  0  0
 15 16  4  0  0  0  0
 16 17  4  0  0  0  0
 17 18  4  0  0  0  0
 18 19  1  0  0  0  0
 18 20  4  0  0  0  0
 20 21  4  0  0  0  0
 21 22  4  0  0  0  0
 12 22  4  0  0  0  0
 16 22  4  0  0  0  0
 10 23  4  0  0  0  0
 23 24  4  0  0  0  0
  7 24  4  0  0  0  0
 24 25  1  0  0  0  0
M  END
>  <CdId>
644

>  <Mol Weight>
355.87

>  <Formula>
C20H22ClN3O

>  <Molecule ChEMBL ID>
CHEMBL147587

>  <Molecule Name>
ISOQUINE

>  <Molecule Max Phase>
None

>  <Molecular Weight>
355.87

>  <#RO5 Violations>
1

>  <AlogP>
5.18

>  <Compound Key>
3

>  <Standard Type>
IC50

>  <Standard Relation>
'='

>  <Standard Value>
13000.0

>  <Standard Units>
nM

$$$$

  Mrv2114 03112311372D          

 25 27  0  0  0  0            999 V2000
   -2.8579   -5.7750    0.0000 C   0  0  0  0  0  0  0  0  0  0  0  0
   -2.1434   -5.3625    0.0000 C   0  0  0  0  0  0  0  0  0  0  0  0
   -1.7309   -6.0770    0.0000 C   0  0  0  0  0  0  0  0  0  0  0  0
   -2.5559   -4.6480    0.0000 C   0  0  0  0  0  0  0  0  0  0  0  0
   -1.4289   -4.9500    0.0000 N   0  0  0  0  0  0  0  0  0  0  0  0
   -1.4289   -4.1250    0.0000 C   0  0  0  0  0  0  0  0  0  0  0  0
   -0.7145   -3.7125    0.0000 C   0  0  0  0  0  0  0  0  0  0  0  0
   -0.7145   -2.8875    0.0000 C   0  0  0  0  0  0  0  0  0  0  0  0
    0.0000   -2.4750    0.0000 C   0  0  0  0  0  0  0  0  0  0  0  0
    0.7145   -2.8875    0.0000 C   0  0  0  0  0  0  0  0  0  0  0  0
    1.4289   -2.4750    0.0000 N   0  0  0  0  0  0  0  0  0  0  0  0
    1.4289   -1.6500    0.0000 C   0  0  0  0  0  0  0  0  0  0  0  0
    0.7145   -1.2375    0.0000 C   0  0  0  0  0  0  0  0  0  0  0  0
    0.7145   -0.4125    0.0000 C   0  0  0  0  0  0  0  0  0  0  0  0
    1.4289    0.0000    0.0000 N   0  0  0  0  0  0  0  0  0  0  0  0
    2.1434   -0.4125    0.0000 C   0  0  0  0  0  0  0  0  0  0  0  0
    2.8579    0.0000    0.0000 C   0  0  0  0  0  0  0  0  0  0  0  0
    3.5724   -0.4125    0.0000 C   0  0  0  0  0  0  0  0  0  0  0  0
    4.2868   -0.0000    0.0000 Cl  0  0  0  0  0  0  0  0  0  0  0  0
    3.5724   -1.2375    0.0000 C   0  0  0  0  0  0  0  0  0  0  0  0
    2.8579   -1.6500    0.0000 C   0  0  0  0  0  0  0  0  0  0  0  0
    2.1434   -1.2375    0.0000 C   0  0  0  0  0  0  0  0  0  0  0  0
    0.7145   -3.7125    0.0000 C   0  0  0  0  0  0  0  0  0  0  0  0
    0.0000   -4.1250    0.0000 C   0  0  0  0  0  0  0  0  0  0  0  0
    0.0000   -4.9500    0.0000 O   0  0  0  0  0  0  0  0  0  0  0  0
  1  2  1  0  0  0  0
  2  3  1  0  0  0  0
  2  4  1  0  0  0  0
  2  5  1  0  0  0  0
  5  6  1  0  0  0  0
  6  7  1  0  0  0  0
  7  8  4  0  0  0  0
  8  9  4  0  0  0  0
  9 10  4  0  0  0  0
 10 11  1  0  0  0  0
 11 12  1  0  0  0  0
 12 13  4  0  0  0  0
 13 14  4  0  0  0  0
 14 15  4  0  0  0  0
 15 16  4  0  0  0  0
 16 17  4  0  0  0  0
 17 18  4  0  0  0  0
 18 19  1  0  0  0  0
 18 20  4  0  0  0  0
 20 21  4  0  0  0  0
 21 22  4  0  0  0  0
 12 22  4  0  0  0  0
 16 22  4  0  0  0  0
 10 23  4  0  0  0  0
 23 24  4  0  0  0  0
  7 24  4  0  0  0  0
 24 25  1  0  0  0  0
M  END
>  <CdId>
645

>  <Mol Weight>
355.87

>  <Formula>
C20H22ClN3O

>  <Molecule ChEMBL ID>
CHEMBL147806

>  <Molecule Name>
GSK-369796

>  <Molecule Max Phase>
1

>  <Molecular Weight>
355.87

>  <#RO5 Violations>
1

>  <AlogP>
5.23

>  <Compound Key>
4, GSK-369796, NTBI

>  <Standard Type>
IC50

>  <Standard Relation>
'='

>  <Standard Value>
23000.0

>  <Standard Units>
nM

$$$$

  Mrv2114 03112311372D          

 30 33  0  0  1  0            999 V2000
    0.7145   -1.2375    0.0000 C   0  0  0  0  0  0  0  0  0  0  0  0
    0.7145   -0.4125    0.0000 C   0  0  2  0  0  0  0  0  0  0  0  0
    0.0000    0.0000    0.0000 C   0  0  0  0  0  0  0  0  0  0  0  0
   -0.7846   -0.2549    0.0000 N   0  0  0  0  0  0  0  0  0  0  0  0
   -1.2695    0.4125    0.0000 N   0  0  0  0  0  0  0  0  0  0  0  0
   -0.7846    1.0799    0.0000 N   0  0  0  0  0  0  0  0  0  0  0  0
   -1.0396    1.8646    0.0000 C   0  0  0  0  0  0  0  0  0  0  0  0
   -1.8465    2.0361    0.0000 C   0  0  0  0  0  0  0  0  0  0  0  0
   -2.1015    2.8207    0.0000 C   0  0  0  0  0  0  0  0  0  0  0  0
   -2.9084    2.9922    0.0000 F   0  0  0  0  0  0  0  0  0  0  0  0
   -1.5494    3.4338    0.0000 C   0  0  0  0  0  0  0  0  0  0  0  0
   -0.7425    3.2623    0.0000 C   0  0  0  0  0  0  0  0  0  0  0  0
   -0.4875    2.4777    0.0000 N   0  0  0  0  0  0  0  0  0  0  0  0
    0.0000    0.8250    0.0000 C   0  0  0  0  0  0  0  0  0  0  0  0
    0.7145    1.2375    0.0000 C   0  0  0  0  0  0  0  0  0  0  0  0
    1.4289    0.8250    0.0000 C   0  0  0  0  0  0  0  0  0  0  0  0
    1.4289    0.0000    0.0000 N   0  0  0  0  0  0  0  0  0  0  0  0
    2.1434   -0.4125    0.0000 C   0  0  0  0  0  0  0  0  0  0  0  0
    2.1434   -1.2375    0.0000 O   0  0  0  0  0  0  0  0  0  0  0  0
    2.8579    0.0000    0.0000 C   0  0  0  0  0  0  0  0  0  0  0  0
    2.8579    0.8250    0.0000 C   0  0  0  0  0  0  0  0  0  0  0  0
    3.5724    1.2375    0.0000 C   0  0  0  0  0  0  0  0  0  0  0  0
    4.2868    0.8250    0.0000 C   0  0  0  0  0  0  0  0  0  0  0  0
    4.2868    0.0000    0.0000 C   0  0  0  0  0  0  0  0  0  0  0  0
    5.0013   -0.4125    0.0000 C   0  0  0  0  0  0  0  0  0  0  0  0
    5.7158   -0.8250    0.0000 F   0  0  0  0  0  0  0  0  0  0  0  0
    4.5888   -1.1270    0.0000 F   0  0  0  0  0  0  0  0  0  0  0  0
    5.4138    0.3020    0.0000 F   0  0  0  0  0  0  0  0  0  0  0  0
    3.5724   -0.4125    0.0000 C   0  0  0  0  0  0  0  0  0  0  0  0
    3.5724   -1.2375    0.0000 Cl  0  0  0  0  0  0  0  0  0  0  0  0
  2  1  1  6  0  0  0
  2  3  1  0  0  0  0
  3  4  4  0  0  0  0
  4  5  4  0  0  0  0
  5  6  4  0  0  0  0
  6  7  1  0  0  0  0
  7  8  4  0  0  0  0
  8  9  4  0  0  0  0
  9 10  1  0  0  0  0
  9 11  4  0  0  0  0
 11 12  4  0  0  0  0
 12 13  4  0  0  0  0
  7 13  4  0  0  0  0
  6 14  4  0  0  0  0
  3 14  4  0  0  0  0
 14 15  1  0  0  0  0
 15 16  1  0  0  0  0
 16 17  1  0  0  0  0
  2 17  1  0  0  0  0
 17 18  1  0  0  0  0
 18 19  2  0  0  0  0
 18 20  1  0  0  0  0
 20 21  4  0  0  0  0
 21 22  4  0  0  0  0
 22 23  4  0  0  0  0
 23 24  4  0  0  0  0
 24 25  1  0  0  0  0
 25 26  1  0  0  0  0
 25 27  1  0  0  0  0
 25 28  1  0  0  0  0
 24 29  4  0  0  0  0
 20 29  4  0  0  0  0
 29 30  1  0  0  0  0
M  END
>  <CdId>
646

>  <Mol Weight>
439.8

>  <Formula>
C19H14ClF4N5O

>  <Molecule ChEMBL ID>
CHEMBL4094806

>  <Molecule Max Phase>
None

>  <Molecular Weight>
439.8

>  <#RO5 Violations>
0

>  <AlogP>
4.23

>  <Compound Key>
10

>  <Standard Type>
IC50

>  <Standard Relation>
'>'

>  <Standard Value>
10000.0

>  <Standard Units>
nM

$$$$

  Mrv2114 03112311372D          

 37 40  0  0  1  0            999 V2000
    5.4957    2.3479    0.0000 C   0  0  0  0  0  0  0  0  0  0  0  0
    4.7812    1.9354    0.0000 N   0  0  0  0  0  0  0  0  0  0  0  0
    4.0668    2.3479    0.0000 C   0  0  0  0  0  0  0  0  0  0  0  0
    4.4048    3.0824    0.0000 O   0  0  0  0  0  0  0  0  0  0  0  0
    3.3523    1.9354    0.0000 N   0  0  0  0  0  0  0  0  0  0  0  0
    3.3523    1.1104    0.0000 C   0  0  0  0  0  0  0  0  0  0  0  0
    4.0668    0.6979    0.0000 O   0  0  0  0  0  0  0  0  0  0  0  0
    2.6378    0.6979    0.0000 N   0  0  0  0  0  0  0  0  0  0  0  0
    2.6378   -0.1271    0.0000 C   0  0  0  0  0  0  0  0  0  0  0  0
    1.9233   -0.5396    0.0000 C   0  0  0  0  0  0  0  0  0  0  0  0
    1.9233   -1.3646    0.0000 C   0  0  0  0  0  0  0  0  0  0  0  0
    2.6378   -1.7771    0.0000 C   0  0  0  0  0  0  0  0  0  0  0  0
    3.3523   -1.3646    0.0000 C   0  0  0  0  0  0  0  0  0  0  0  0
    4.0668   -1.7771    0.0000 C   0  0  0  0  0  0  0  0  0  0  0  0
    4.7812   -2.1896    0.0000 F   0  0  0  0  0  0  0  0  0  0  0  0
    4.4793   -1.0626    0.0000 F   0  0  0  0  0  0  0  0  0  0  0  0
    3.6543   -2.4915    0.0000 F   0  0  0  0  0  0  0  0  0  0  0  0
    3.3523   -0.5396    0.0000 C   0  0  0  0  0  0  0  0  0  0  0  0
    1.9233    1.1104    0.0000 C   0  0  0  0  0  0  0  0  0  0  0  0
    1.9233    1.9354    0.0000 C   0  0  0  0  0  0  0  0  0  0  0  0
    1.1387    2.1904    0.0000 C   0  0  0  0  0  0  0  0  0  0  0  0
    0.8838    2.9750    0.0000 O   0  0  0  0  0  0  0  0  0  0  0  0
    0.6538    1.5229    0.0000 C   0  0  0  0  0  0  0  0  0  0  0  0
    1.1387    0.8555    0.0000 C   0  0  0  0  0  0  0  0  0  0  0  0
    2.6378    2.3479    0.0000 C   0  0  1  0  0  0  0  0  0  0  0  0
    2.6378    3.1729    0.0000 C   0  0  0  0  0  0  0  0  0  0  0  0
    1.9233    3.5854    0.0000 C   0  0  0  0  0  0  0  0  0  0  0  0
    1.9233    4.4104    0.0000 C   0  0  0  0  0  0  0  0  0  0  0  0
    2.6378    4.8229    0.0000 C   0  0  0  0  0  0  0  0  0  0  0  0
    2.6378    5.6479    0.0000 C   0  0  0  0  0  0  0  0  0  0  0  0
    2.6378    6.4729    0.0000 N   0  0  0  0  0  0  0  0  0  0  0  0
    3.3523    4.4104    0.0000 C   0  0  0  0  0  0  0  0  0  0  0  0
    3.3523    3.5854    0.0000 C   0  0  0  0  0  0  0  0  0  0  0  0
    4.0668    3.1729    0.0000 S   0  0  0  0  0  0  0  0  0  0  0  0
    4.7812    2.7604    0.0000 C   0  0  0  0  0  0  0  0  0  0  0  0
    3.6543    2.4585    0.0000 O   0  0  0  0  0  0  0  0  0  0  0  0
    4.4793    3.8874    0.0000 O   0  0  0  0  0  0  0  0  0  0  0  0
  1  2  1  0  0  0  0
  2  3  1  0  0  0  0
  3  4  2  0  0  0  0
  3  5  1  0  0  0  0
  5  6  1  0  0  0  0
  6  7  2  0  0  0  0
  6  8  1  0  0  0  0
  8  9  1  0  0  0  0
  9 10  4  0  0  0  0
 10 11  4  0  0  0  0
 11 12  4  0  0  0  0
 12 13  4  0  0  0  0
 13 14  1  0  0  0  0
 14 15  1  0  0  0  0
 14 16  1  0  0  0  0
 14 17  1  0  0  0  0
 13 18  4  0  0  0  0
  9 18  4  0  0  0  0
  8 19  1  0  0  0  0
 19 20  2  0  0  0  0
 20 21  1  0  0  0  0
 21 22  2  0  0  0  0
 21 23  1  0  0  0  0
 23 24  1  0  0  0  0
 19 24  1  0  0  0  0
 25 20  1  0  0  0  0
 25  5  1  0  0  0  0
 25 26  1  1  0  0  0
 26 27  4  0  0  0  0
 27 28  4  0  0  0  0
 28 29  4  0  0  0  0
 29 30  1  0  0  0  0
 30 31  3  0  0  0  0
 29 32  4  0  0  0  0
 32 33  4  0  0  0  0
 26 33  4  0  0  0  0
 33 34  1  0  0  0  0
 34 35  1  0  0  0  0
 34 36  2  0  0  0  0
 34 37  2  0  0  0  0
M  END
>  <CdId>
647

>  <Mol Weight>
532.49

>  <Formula>
C24H19F3N4O5S

>  <Molecule ChEMBL ID>
CHEMBL3617975

>  <Molecule Max Phase>
None

>  <Molecular Weight>
532.5

>  <#RO5 Violations>
1

>  <AlogP>
3.92

>  <Compound Key>
BDBM50120439

>  <Standard Type>
IC50

>  <Standard Relation>
'>'

>  <Standard Value>
50000.0

>  <Standard Units>
nM

$$$$

  Mrv2114 03112311372D          

 30 33  0  0  1  0            999 V2000
    2.8579   -4.9500    0.0000 O   0  0  0  0  0  0  0  0  0  0  0  0
    2.1434   -5.3625    0.0000 C   0  0  0  0  0  0  0  0  0  0  0  0
    2.1434   -6.1875    0.0000 N   0  0  0  0  0  0  0  0  0  0  0  0
    2.8579   -6.6000    0.0000 C   0  0  0  0  0  0  0  0  0  0  0  0
    3.5724   -6.1875    0.0000 C   0  0  0  0  0  0  0  0  0  0  0  0
    4.2868   -6.6000    0.0000 C   0  0  0  0  0  0  0  0  0  0  0  0
    4.2868   -7.4250    0.0000 C   0  0  0  0  0  0  0  0  0  0  0  0
    5.0013   -7.8375    0.0000 Cl  0  0  0  0  0  0  0  0  0  0  0  0
    3.5724   -7.8375    0.0000 C   0  0  0  0  0  0  0  0  0  0  0  0
    2.8579   -7.4250    0.0000 C   0  0  0  0  0  0  0  0  0  0  0  0
    1.4289   -4.9500    0.0000 C   0  0  0  0  0  0  0  0  0  0  0  0
    0.7145   -5.3625    0.0000 O   0  0  0  0  0  0  0  0  0  0  0  0
    1.4289   -4.1250    0.0000 N   0  0  0  0  0  0  0  0  0  0  0  0
    0.7145   -3.7125    0.0000 C   0  0  0  0  0  0  0  0  0  0  0  0
    0.7145   -2.8875    0.0000 C   0  0  0  0  0  0  0  0  0  0  0  0
    1.4289   -2.4750    0.0000 C   0  0  2  0  0  0  0  0  0  0  0  0
    1.4289   -1.6500    0.0000 C   0  0  0  0  0  0  0  0  0  0  0  0
    0.7145   -1.2375    0.0000 C   0  0  0  0  0  0  0  0  0  0  0  0
    0.7145   -0.4125    0.0000 C   0  0  0  0  0  0  0  0  0  0  0  0
    1.4289    0.0000    0.0000 N   0  0  0  0  0  0  0  0  0  0  0  0
    2.1434   -0.4125    0.0000 C   0  0  0  0  0  0  0  0  0  0  0  0
    2.8579    0.0000    0.0000 C   0  0  0  0  0  0  0  0  0  0  0  0
    3.5724   -0.4125    0.0000 C   0  0  0  0  0  0  0  0  0  0  0  0
    3.5724   -1.2375    0.0000 C   0  0  0  0  0  0  0  0  0  0  0  0
    4.2868   -1.6500    0.0000 F   0  0  0  0  0  0  0  0  0  0  0  0
    2.8579   -1.6500    0.0000 C   0  0  0  0  0  0  0  0  0  0  0  0
    2.1434   -1.2375    0.0000 C   0  0  0  0  0  0  0  0  0  0  0  0
    2.1434   -2.8875    0.0000 C   0  0  1  0  0  0  0  0  0  0  0  0
    2.8579   -2.4750    0.0000 O   0  0  0  0  0  0  0  0  0  0  0  0
    2.1434   -3.7125    0.0000 C   0  0  0  0  0  0  0  0  0  0  0  0
  1  2  2  0  0  0  0
  2  3  1  0  0  0  0
  3  4  1  0  0  0  0
  4  5  4  0  0  0  0
  5  6  4  0  0  0  0
  6  7  4  0  0  0  0
  7  8  1  0  0  0  0
  7  9  4  0  0  0  0
  9 10  4  0  0  0  0
  4 10  4  0  0  0  0
  2 11  1  0  0  0  0
 11 12  2  0  0  0  0
 11 13  1  0  0  0  0
 13 14  1  0  0  0  0
 14 15  1  0  0  0  0
 16 15  1  0  0  0  0
 16 17  1  6  0  0  0
 17 18  4  0  0  0  0
 18 19  4  0  0  0  0
 19 20  4  0  0  0  0
 20 21  4  0  0  0  0
 21 22  4  0  0  0  0
 22 23  4  0  0  0  0
 23 24  4  0  0  0  0
 24 25  1  0  0  0  0
 24 26  4  0  0  0  0
 26 27  4  0  0  0  0
 17 27  4  0  0  0  0
 21 27  4  0  0  0  0
 16 28  1  0  0  0  0
 28 29  1  1  0  0  0
 28 30  1  0  0  0  0
 13 30  1  0  0  0  0
M  END
>  <CdId>
648

>  <Mol Weight>
427.86

>  <Formula>
C22H19ClFN3O3

>  <Molecule ChEMBL ID>
CHEMBL4753967

>  <Molecule Max Phase>
None

>  <Molecular Weight>
427.86

>  <#RO5 Violations>
0

>  <AlogP>
3.34

>  <Compound Key>
29

>  <Standard Type>
IC50

>  <Standard Relation>
'='

>  <Standard Value>
9500.0

>  <Standard Units>
nM

$$$$

  Mrv2114 03112311372D          

 41 43  0  0  1  0            999 V2000
   -2.7512    3.2384    0.0000 C   0  0  0  0  0  0  0  0  0  0  0  0
   -2.0367    2.8259    0.0000 C   0  0  0  0  0  0  0  0  0  0  0  0
   -1.3222    3.2384    0.0000 C   0  0  2  0  0  0  0  0  0  0  0  0
   -0.6078    2.8259    0.0000 N   0  0  0  0  0  0  0  0  0  0  0  0
   -0.6078    2.0009    0.0000 S   0  0  0  0  0  0  0  0  0  0  0  0
   -1.4328    2.0009    0.0000 O   0  0  0  0  0  0  0  0  0  0  0  0
    0.2172    2.0009    0.0000 O   0  0  0  0  0  0  0  0  0  0  0  0
   -0.6078    1.1759    0.0000 C   0  0  0  0  0  0  0  0  0  0  0  0
   -1.3222    0.7634    0.0000 C   0  0  0  0  0  0  0  0  0  0  0  0
   -1.3222   -0.0616    0.0000 C   0  0  0  0  0  0  0  0  0  0  0  0
   -0.6078   -0.4741    0.0000 C   0  0  0  0  0  0  0  0  0  0  0  0
   -0.6078   -1.2991    0.0000 C   0  0  0  0  0  0  0  0  0  0  0  0
    0.0597   -1.7840    0.0000 S   0  0  0  0  0  0  0  0  0  0  0  0
   -0.1953   -2.5687    0.0000 C   0  0  0  0  0  0  0  0  0  0  0  0
    0.2897   -3.2361    0.0000 C   0  0  0  0  0  0  0  0  0  0  0  0
   -0.0459   -3.9898    0.0000 O   0  0  0  0  0  0  0  0  0  0  0  0
    1.1101   -3.1499    0.0000 N   0  0  0  0  0  0  0  0  0  0  0  0
    1.5951   -3.8173    0.0000 C   0  0  0  0  0  0  0  0  0  0  0  0
    1.2595   -4.5710    0.0000 C   0  0  0  0  0  0  0  0  0  0  0  0
    0.9239   -5.3246    0.0000 C   0  0  0  0  0  0  0  0  0  0  0  0
    0.5058   -4.2354    0.0000 C   0  0  0  0  0  0  0  0  0  0  0  0
    2.0132   -4.9065    0.0000 O   0  0  0  0  0  0  0  0  0  0  0  0
   -1.0203   -2.5687    0.0000 N   0  0  0  0  0  0  0  0  0  0  0  0
   -1.2752   -1.7840    0.0000 C   0  0  0  0  0  0  0  0  0  0  0  0
   -2.0598   -1.5291    0.0000 C   0  0  0  0  0  0  0  0  0  0  0  0
   -2.2314   -0.7221    0.0000 O   0  0  0  0  0  0  0  0  0  0  0  0
   -2.6729   -2.0811    0.0000 N   0  0  0  0  0  0  0  0  0  0  0  0
   -2.5014   -2.8881    0.0000 C   0  0  0  0  0  0  0  0  0  0  0  0
   -3.1145   -3.4401    0.0000 C   0  0  0  0  0  0  0  0  0  0  0  0
   -3.8991   -3.1852    0.0000 C   0  0  0  0  0  0  0  0  0  0  0  0
   -4.5122   -3.7372    0.0000 F   0  0  0  0  0  0  0  0  0  0  0  0
   -4.0706   -2.3782    0.0000 C   0  0  0  0  0  0  0  0  0  0  0  0
   -3.4575   -1.8262    0.0000 C   0  0  0  0  0  0  0  0  0  0  0  0
    0.1067   -0.0616    0.0000 C   0  0  0  0  0  0  0  0  0  0  0  0
    0.8212   -0.4741    0.0000 Cl  0  0  0  0  0  0  0  0  0  0  0  0
    0.1067    0.7634    0.0000 C   0  0  0  0  0  0  0  0  0  0  0  0
    0.8212    1.1759    0.0000 Cl  0  0  0  0  0  0  0  0  0  0  0  0
   -1.3222    4.0634    0.0000 C   0  0  0  0  0  0  0  0  0  0  0  0
   -1.3222    4.8884    0.0000 F   0  0  0  0  0  0  0  0  0  0  0  0
   -2.1472    4.0634    0.0000 F   0  0  0  0  0  0  0  0  0  0  0  0
   -0.4972    4.0634    0.0000 F   0  0  0  0  0  0  0  0  0  0  0  0
  1  2  1  0  0  0  0
  3  2  1  0  0  0  0
  3  4  1  1  0  0  0
  4  5  1  0  0  0  0
  5  6  2  0  0  0  0
  5  7  2  0  0  0  0
  5  8  1  0  0  0  0
  8  9  4  0  0  0  0
  9 10  4  0  0  0  0
 10 11  4  0  0  0  0
 11 12  1  0  0  0  0
 12 13  4  0  0  0  0
 13 14  4  0  0  0  0
 14 15  1  0  0  0  0
 15 16  2  0  0  0  0
 15 17  1  0  0  0  0
 17 18  1  0  0  0  0
 18 19  1  0  0  0  0
 19 20  1  0  0  0  0
 19 21  1  0  0  0  0
 19 22  1  0  0  0  0
 14 23  4  0  0  0  0
 23 24  4  0  0  0  0
 12 24  4  0  0  0  0
 24 25  1  0  0  0  0
 25 26  2  0  0  0  0
 25 27  1  0  0  0  0
 27 28  1  0  0  0  0
 28 29  1  0  0  0  0
 29 30  1  0  0  0  0
 30 31  1  0  0  0  0
 30 32  1  0  0  0  0
 32 33  1  0  0  0  0
 27 33  1  0  0  0  0
 11 34  4  0  0  0  0
 34 35  1  0  0  0  0
 34 36  4  0  0  0  0
  8 36  4  0  0  0  0
 36 37  1  0  0  0  0
  3 38  1  0  0  0  0
 38 39  1  0  0  0  0
 38 40  1  0  0  0  0
 38 41  1  0  0  0  0
M  END
>  <CdId>
649

>  <Mol Weight>
663.52

>  <Formula>
C24H28Cl2F4N4O5S2

>  <Molecule ChEMBL ID>
CHEMBL4645439

>  <Molecule Max Phase>
None

>  <Molecular Weight>
663.54

>  <#RO5 Violations>
1

>  <AlogP>
4.81

>  <Compound Key>
3b

>  <Standard Type>
IC50

>  <Standard Relation>
'>'

>  <Standard Value>
10000.0

>  <Standard Units>
nM

$$$$

  Mrv2114 03112311372D          

 26 28  0  0  0  0            999 V2000
    1.1296   -4.8774    0.0000 N   0  0  0  0  0  0  0  0  0  0  0  0
    1.5421   -4.1629    0.0000 C   0  0  0  0  0  0  0  0  0  0  0  0
    1.1296   -3.4485    0.0000 C   0  0  0  0  0  0  0  0  0  0  0  0
    1.5421   -2.7340    0.0000 C   0  0  0  0  0  0  0  0  0  0  0  0
    2.3671   -2.7340    0.0000 C   0  0  0  0  0  0  0  0  0  0  0  0
    2.7796   -2.0195    0.0000 S   0  0  0  0  0  0  0  0  0  0  0  0
    3.4941   -2.4320    0.0000 O   0  0  0  0  0  0  0  0  0  0  0  0
    2.0652   -1.6070    0.0000 O   0  0  0  0  0  0  0  0  0  0  0  0
    3.1921   -1.3050    0.0000 N   0  0  0  0  0  0  0  0  0  0  0  0
    4.0171   -1.3050    0.0000 C   0  0  0  0  0  0  0  0  0  0  0  0
    4.4296   -2.0195    0.0000 C   0  0  0  0  0  0  0  0  0  0  0  0
    5.2546   -2.0195    0.0000 C   0  0  0  0  0  0  0  0  0  0  0  0
    5.6671   -2.7340    0.0000 O   0  0  0  0  0  0  0  0  0  0  0  0
    2.7796   -0.5906    0.0000 C   0  0  0  0  0  0  0  0  0  0  0  0
    1.9591   -0.5043    0.0000 C   0  0  0  0  0  0  0  0  0  0  0  0
    1.7876    0.3026    0.0000 C   0  0  0  0  0  0  0  0  0  0  0  0
    2.5021    0.7151    0.0000 N   0  0  0  0  0  0  0  0  0  0  0  0
    3.1152    0.1631    0.0000 N   0  0  0  0  0  0  0  0  0  0  0  0
    3.9222    0.3346    0.0000 C   0  0  0  0  0  0  0  0  0  0  0  0
    4.1771    1.1192    0.0000 C   0  0  0  0  0  0  0  0  0  0  0  0
    4.9841    1.2908    0.0000 C   0  0  0  0  0  0  0  0  0  0  0  0
    5.5361    0.6777    0.0000 C   0  0  0  0  0  0  0  0  0  0  0  0
    5.2812   -0.1069    0.0000 C   0  0  0  0  0  0  0  0  0  0  0  0
    4.4742   -0.2785    0.0000 C   0  0  0  0  0  0  0  0  0  0  0  0
    2.7796   -3.4485    0.0000 C   0  0  0  0  0  0  0  0  0  0  0  0
    2.3671   -4.1629    0.0000 C   0  0  0  0  0  0  0  0  0  0  0  0
  1  2  1  0  0  0  0
  2  3  4  0  0  0  0
  3  4  4  0  0  0  0
  4  5  4  0  0  0  0
  5  6  1  0  0  0  0
  6  7  2  0  0  0  0
  6  8  2  0  0  0  0
  6  9  1  0  0  0  0
  9 10  1  0  0  0  0
 10 11  1  0  0  0  0
 11 12  1  0  0  0  0
 12 13  1  0  0  0  0
  9 14  1  0  0  0  0
 14 15  4  0  0  0  0
 15 16  4  0  0  0  0
 16 17  4  0  0  0  0
 17 18  4  0  0  0  0
 14 18  4  0  0  0  0
 18 19  1  0  0  0  0
 19 20  4  0  0  0  0
 20 21  4  0  0  0  0
 21 22  4  0  0  0  0
 22 23  4  0  0  0  0
 23 24  4  0  0  0  0
 19 24  4  0  0  0  0
  5 25  4  0  0  0  0
 25 26  4  0  0  0  0
  2 26  4  0  0  0  0
M  END
>  <CdId>
650

>  <Mol Weight>
372.44

>  <Formula>
C18H20N4O3S

>  <Molecule ChEMBL ID>
CHEMBL120825

>  <Molecule Max Phase>
None

>  <Molecular Weight>
372.45

>  <#RO5 Violations>
0

>  <AlogP>
2.03

>  <Compound Key>
13

>  <Standard Type>
IC50

>  <Standard Relation>
'='

>  <Standard Value>
22000.0

>  <Standard Units>
nM

$$$$

  Mrv2114 03112311372D          

 38 43  0  0  0  0            999 V2000
    5.2806   -0.7622    0.0000 C   0  0  0  0  0  0  0  0  0  0  0  0
    4.5661   -0.3497    0.0000 C   0  0  0  0  0  0  0  0  0  0  0  0
    3.8517   -0.7622    0.0000 C   0  0  0  0  0  0  0  0  0  0  0  0
    3.8517   -1.5872    0.0000 C   0  0  0  0  0  0  0  0  0  0  0  0
    4.5661   -1.9997    0.0000 C   0  0  0  0  0  0  0  0  0  0  0  0
    4.5661   -2.8247    0.0000 C   0  0  0  0  0  0  0  0  0  0  0  0
    3.8517   -3.2372    0.0000 C   0  0  0  0  0  0  0  0  0  0  0  0
    3.8517   -4.0622    0.0000 C   0  0  0  0  0  0  0  0  0  0  0  0
    3.1372   -4.4747    0.0000 N   0  0  0  0  0  0  0  0  0  0  0  0
    4.5661   -4.4747    0.0000 O   0  0  0  0  0  0  0  0  0  0  0  0
    3.1372   -2.8247    0.0000 C   0  0  0  0  0  0  0  0  0  0  0  0
    2.3526   -3.0797    0.0000 N   0  0  0  0  0  0  0  0  0  0  0  0
    1.8676   -2.4122    0.0000 C   0  0  0  0  0  0  0  0  0  0  0  0
    1.0472   -2.3260    0.0000 C   0  0  0  0  0  0  0  0  0  0  0  0
    0.7116   -1.5723    0.0000 C   0  0  0  0  0  0  0  0  0  0  0  0
   -0.1089   -1.4861    0.0000 C   0  0  0  0  0  0  0  0  0  0  0  0
   -0.9294   -1.3999    0.0000 C   0  0  0  0  0  0  0  0  0  0  0  0
   -0.1951   -2.3066    0.0000 C   0  0  0  0  0  0  0  0  0  0  0  0
   -0.0226   -0.6656    0.0000 O   0  0  0  0  0  0  0  0  0  0  0  0
    1.1965   -0.9049    0.0000 C   0  0  0  0  0  0  0  0  0  0  0  0
    2.0170   -0.9911    0.0000 C   0  0  0  0  0  0  0  0  0  0  0  0
    2.3526   -1.7448    0.0000 C   0  0  0  0  0  0  0  0  0  0  0  0
    3.1372   -1.9997    0.0000 C   0  0  0  0  0  0  0  0  0  0  0  0
    3.1372   -0.3497    0.0000 C   0  0  0  0  0  0  0  0  0  0  0  0
    3.1372    0.4753    0.0000 C   0  0  0  0  0  0  0  0  0  0  0  0
    3.8517    0.8878    0.0000 C   0  0  0  0  0  0  0  0  0  0  0  0
    4.5661    0.4753    0.0000 C   0  0  0  0  0  0  0  0  0  0  0  0
    5.2806    0.8878    0.0000 N   0  0  0  0  0  0  0  0  0  0  0  0
    5.2806    1.7128    0.0000 C   0  0  0  0  0  0  0  0  0  0  0  0
    5.9951    2.1253    0.0000 N   0  0  0  0  0  0  0  0  0  0  0  0
    6.7095    1.7128    0.0000 C   0  0  0  0  0  0  0  0  0  0  0  0
    7.4240    2.1253    0.0000 C   0  0  0  0  0  0  0  0  0  0  0  0
    8.1385    1.7128    0.0000 C   0  0  0  0  0  0  0  0  0  0  0  0
    8.1385    0.8878    0.0000 C   0  0  0  0  0  0  0  0  0  0  0  0
    7.4240    0.4753    0.0000 C   0  0  0  0  0  0  0  0  0  0  0  0
    6.7095    0.8878    0.0000 C   0  0  0  0  0  0  0  0  0  0  0  0
    5.9951    0.4753    0.0000 C   0  0  0  0  0  0  0  0  0  0  0  0
    5.9951   -0.3497    0.0000 O   0  0  0  0  0  0  0  0  0  0  0  0
  1  2  1  0  0  0  0
  2  3  4  0  0  0  0
  3  4  1  0  0  0  0
  4  5  4  0  0  0  0
  5  6  4  0  0  0  0
  6  7  4  0  0  0  0
  7  8  1  0  0  0  0
  8  9  1  0  0  0  0
  8 10  2  0  0  0  0
  7 11  4  0  0  0  0
 11 12  4  0  0  0  0
 12 13  4  0  0  0  0
 13 14  4  0  0  0  0
 14 15  4  0  0  0  0
 15 16  1  0  0  0  0
 16 17  1  0  0  0  0
 16 18  1  0  0  0  0
 16 19  1  0  0  0  0
 15 20  4  0  0  0  0
 20 21  4  0  0  0  0
 21 22  4  0  0  0  0
 13 22  4  0  0  0  0
 22 23  4  0  0  0  0
  4 23  4  0  0  0  0
 11 23  4  0  0  0  0
  3 24  4  0  0  0  0
 24 25  4  0  0  0  0
 25 26  4  0  0  0  0
 26 27  4  0  0  0  0
  2 27  4  0  0  0  0
 27 28  1  0  0  0  0
 28 29  4  0  0  0  0
 29 30  4  0  0  0  0
 30 31  4  0  0  0  0
 31 32  4  0  0  0  0
 32 33  4  0  0  0  0
 33 34  4  0  0  0  0
 34 35  4  0  0  0  0
 35 36  4  0  0  0  0
 31 36  4  0  0  0  0
 36 37  4  0  0  0  0
 28 37  4  0  0  0  0
 37 38  2  0  0  0  0
M  STY  1   1 DAT
M  SAL   1  1  12
M  SDT   1 MRV_IMPLICIT_H                                        
M  SDD   1     0.0000    0.0000    DR    ALL  0       0  
M  SED   1 IMPL_H1
M  END
>  <CdId>
651

>  <Mol Weight>
502.574

>  <Formula>
C31H26N4O3

>  <Molecule ChEMBL ID>
CHEMBL3918580

>  <Molecule Max Phase>
None

>  <Molecular Weight>
502.57

>  <#RO5 Violations>
2

>  <AlogP>
5.32

>  <Compound Key>
6

>  <Standard Type>
IC50

>  <Standard Relation>
'>'

>  <Standard Value>
8000.0

>  <Standard Units>
nM

$$$$

  Mrv2114 03112311372D          

 43 48  0  0  1  0            999 V2000
   -0.7145   -7.0125    0.0000 C   0  0  0  0  0  0  0  0  0  0  0  0
   -0.7145   -6.1875    0.0000 N   0  0  0  0  0  0  0  0  0  0  0  0
   -1.4289   -5.7750    0.0000 C   0  0  1  0  0  0  0  0  0  0  0  0
   -2.1434   -6.1875    0.0000 C   0  0  0  0  0  0  0  0  0  0  0  0
   -1.4289   -4.9500    0.0000 C   0  0  0  0  0  0  0  0  0  0  0  0
   -0.7145   -4.5375    0.0000 O   0  0  0  0  0  0  0  0  0  0  0  0
   -2.1434   -4.5375    0.0000 N   0  0  0  0  0  0  0  0  0  0  0  0
   -2.1434   -3.7125    0.0000 C   0  0  0  0  0  0  0  0  0  0  0  0
   -2.8579   -3.3000    0.0000 C   0  0  0  0  0  0  0  0  0  0  0  0
   -2.8579   -2.4750    0.0000 C   0  0  0  0  0  0  0  0  0  0  0  0
   -2.1434   -2.0625    0.0000 C   0  0  0  0  0  0  0  0  0  0  0  0
   -2.1434   -1.2375    0.0000 C   0  0  0  0  0  0  0  0  0  0  0  0
   -2.8109   -0.7526    0.0000 C   0  0  0  0  0  0  0  0  0  0  0  0
   -3.5955   -1.0075    0.0000 C   0  0  0  0  0  0  0  0  0  0  0  0
   -3.7670   -1.8145    0.0000 C   0  0  0  0  0  0  0  0  0  0  0  0
   -4.5516   -2.0694    0.0000 C   0  0  0  0  0  0  0  0  0  0  0  0
   -5.1647   -1.5174    0.0000 C   0  0  0  0  0  0  0  0  0  0  0  0
   -5.9493   -1.7723    0.0000 C   0  0  0  0  0  0  0  0  0  0  0  0
   -4.9932   -0.7104    0.0000 N   0  0  0  0  0  0  0  0  0  0  0  0
   -4.2086   -0.4555    0.0000 C   0  0  0  0  0  0  0  0  0  0  0  0
   -2.5559    0.0320    0.0000 N   0  0  0  0  0  0  0  0  0  0  0  0
   -1.7309    0.0320    0.0000 C   0  0  0  0  0  0  0  0  0  0  0  0
   -1.1789    0.6451    0.0000 C   0  0  0  0  0  0  0  0  0  0  0  0
   -0.3719    0.4736    0.0000 C   0  0  0  0  0  0  0  0  0  0  0  0
    0.1801    1.0867    0.0000 C   0  0  0  0  0  0  0  0  0  0  0  0
   -0.1170   -0.3110    0.0000 C   0  0  0  0  0  0  0  0  0  0  0  0
   -0.6690   -0.9241    0.0000 C   0  0  0  0  0  0  0  0  0  0  0  0
   -1.4760   -0.7526    0.0000 N   0  0  0  0  0  0  0  0  0  0  0  0
   -1.4289   -2.4750    0.0000 C   0  0  0  0  0  0  0  0  0  0  0  0
   -0.7145   -2.0625    0.0000 C   0  0  0  0  0  0  0  0  0  0  0  0
    0.0000   -1.6500    0.0000 C   0  0  0  0  0  0  0  0  0  0  0  0
    0.7145   -1.2375    0.0000 C   0  0  0  0  0  0  0  0  0  0  0  0
    0.7145   -0.4125    0.0000 C   0  0  0  0  0  0  0  0  0  0  0  0
    1.4289    0.0000    0.0000 C   0  0  0  0  0  0  0  0  0  0  0  0
    2.1434   -0.4125    0.0000 C   0  0  0  0  0  0  0  0  0  0  0  0
    2.8579    0.0000    0.0000 C   0  0  0  0  0  0  0  0  0  0  0  0
    2.8579    0.8250    0.0000 C   0  0  0  0  0  0  0  0  0  0  0  0
    3.5724   -0.4125    0.0000 N   0  0  0  0  0  0  0  0  0  0  0  0
    3.5724   -1.2375    0.0000 C   0  0  0  0  0  0  0  0  0  0  0  0
    2.8579   -1.6500    0.0000 C   0  0  0  0  0  0  0  0  0  0  0  0
    2.1434   -1.2375    0.0000 C   0  0  0  0  0  0  0  0  0  0  0  0
    1.4289   -1.6500    0.0000 C   0  0  0  0  0  0  0  0  0  0  0  0
   -1.4289   -3.3000    0.0000 N   0  0  0  0  0  0  0  0  0  0  0  0
  1  2  1  0  0  0  0
  3  2  1  0  0  0  0
  3  4  1  1  0  0  0
  3  5  1  0  0  0  0
  5  6  2  0  0  0  0
  5  7  1  0  0  0  0
  7  8  1  0  0  0  0
  8  9  4  0  0  0  0
  9 10  4  0  0  0  0
 10 11  4  0  0  0  0
 11 12  1  0  0  0  0
 12 13  4  0  0  0  0
 13 14  1  0  0  0  0
 14 15  4  0  0  0  0
 15 16  4  0  0  0  0
 16 17  4  0  0  0  0
 17 18  1  0  0  0  0
 17 19  4  0  0  0  0
 19 20  4  0  0  0  0
 14 20  4  0  0  0  0
 13 21  4  0  0  0  0
 21 22  4  0  0  0  0
 22 23  4  0  0  0  0
 23 24  4  0  0  0  0
 24 25  1  0  0  0  0
 24 26  4  0  0  0  0
 26 27  4  0  0  0  0
 27 28  4  0  0  0  0
 12 28  4  0  0  0  0
 22 28  4  0  0  0  0
 11 29  4  0  0  0  0
 29 30  1  0  0  0  0
 30 31  3  0  0  0  0
 31 32  1  0  0  0  0
 32 33  4  0  0  0  0
 33 34  4  0  0  0  0
 34 35  4  0  0  0  0
 35 36  4  0  0  0  0
 36 37  1  0  0  0  0
 36 38  4  0  0  0  0
 38 39  4  0  0  0  0
 39 40  4  0  0  0  0
 40 41  4  0  0  0  0
 35 41  4  0  0  0  0
 41 42  4  0  0  0  0
 32 42  4  0  0  0  0
 29 43  4  0  0  0  0
  8 43  4  0  0  0  0
M  END
>  <CdId>
652

>  <Mol Weight>
565.681

>  <Formula>
C35H31N7O

>  <Molecule ChEMBL ID>
CHEMBL3896543

>  <Molecule Max Phase>
None

>  <Molecular Weight>
565.68

>  <#RO5 Violations>
2

>  <AlogP>
5.88

>  <Compound Key>
BDBM253996

>  <Standard Type>
IC50

>  <Standard Relation>
'='

>  <Standard Value>
25000.0

>  <Standard Units>
nM

$$$$

  Mrv2114 03112311372D          

 37 41  0  0  0  0            999 V2000
    7.0067   -1.4902    0.0000 C   0  0  0  0  0  0  0  0  0  0  0  0
    6.4433   -0.8876    0.0000 O   0  0  0  0  0  0  0  0  0  0  0  0
    6.6834   -0.0983    0.0000 C   0  0  0  0  0  0  0  0  0  0  0  0
    6.1200    0.5043    0.0000 C   0  0  0  0  0  0  0  0  0  0  0  0
    6.3602    1.2936    0.0000 C   0  0  0  0  0  0  0  0  0  0  0  0
    5.7967    1.8962    0.0000 C   0  0  0  0  0  0  0  0  0  0  0  0
    6.0369    2.6855    0.0000 O   0  0  0  0  0  0  0  0  0  0  0  0
    4.9931    1.7096    0.0000 N   0  0  0  0  0  0  0  0  0  0  0  0
    4.7529    0.9203    0.0000 C   0  0  0  0  0  0  0  0  0  0  0  0
    3.9493    0.7337    0.0000 C   0  0  0  0  0  0  0  0  0  0  0  0
    3.3859    1.3363    0.0000 C   0  0  0  0  0  0  0  0  0  0  0  0
    3.6261    2.1256    0.0000 C   0  0  0  0  0  0  0  0  0  0  0  0
    4.4297    2.3122    0.0000 C   0  0  0  0  0  0  0  0  0  0  0  0
    3.1457    0.5470    0.0000 C   0  0  0  0  0  0  0  0  0  0  0  0
    2.3421    0.3604    0.0000 C   0  0  0  0  0  0  0  0  0  0  0  0
    2.1019   -0.4289    0.0000 O   0  0  0  0  0  0  0  0  0  0  0  0
    1.7787    0.9630    0.0000 C   0  0  0  0  0  0  0  0  0  0  0  0
    2.0188    1.7523    0.0000 C   0  0  0  0  0  0  0  0  0  0  0  0
    1.3424    2.2246    0.0000 C   0  0  0  0  0  0  0  0  0  0  0  0
    0.6842    1.7272    0.0000 N   0  0  0  0  0  0  0  0  0  0  0  0
    0.9538    0.9475    0.0000 N   0  0  0  0  0  0  0  0  0  0  0  0
    0.4815    0.2711    0.0000 C   0  0  0  0  0  0  0  0  0  0  0  0
   -0.3405    0.3419    0.0000 C   0  0  0  0  0  0  0  0  0  0  0  0
    0.8311   -0.4761    0.0000 C   0  0  0  0  0  0  0  0  0  0  0  0
    2.8224    1.9389    0.0000 C   0  0  0  0  0  0  0  0  0  0  0  0
    7.1638    1.4802    0.0000 C   0  0  0  0  0  0  0  0  0  0  0  0
    7.7272    0.8776    0.0000 C   0  0  0  0  0  0  0  0  0  0  0  0
    8.5308    1.0642    0.0000 C   0  0  0  0  0  0  0  0  0  0  0  0
    8.7710    1.8535    0.0000 C   0  0  0  0  0  0  0  0  0  0  0  0
    9.5746    2.0401    0.0000 C   0  0  0  0  0  0  0  0  0  0  0  0
   10.1380    1.4375    0.0000 C   0  0  0  0  0  0  0  0  0  0  0  0
   10.9417    1.6242    0.0000 C   0  0  0  0  0  0  0  0  0  0  0  0
   11.1818    2.4134    0.0000 O   0  0  0  0  0  0  0  0  0  0  0  0
   11.5051    1.0215    0.0000 O   0  0  0  0  0  0  0  0  0  0  0  0
    9.8979    0.6483    0.0000 C   0  0  0  0  0  0  0  0  0  0  0  0
    9.0943    0.4616    0.0000 C   0  0  0  0  0  0  0  0  0  0  0  0
    7.4870    0.0883    0.0000 N   0  0  0  0  0  0  0  0  0  0  0  0
  1  2  1  0  0  0  0
  2  3  1  0  0  0  0
  3  4  4  0  0  0  0
  4  5  4  0  0  0  0
  5  6  1  0  0  0  0
  6  7  2  0  0  0  0
  6  8  1  0  0  0  0
  8  9  1  0  0  0  0
  9 10  1  0  0  0  0
 10 11  1  0  0  0  0
 11 12  1  0  0  0  0
 12 13  1  0  0  0  0
  8 13  1  0  0  0  0
 11 14  1  0  0  0  0
 14 15  1  0  0  0  0
 15 16  2  0  0  0  0
 15 17  1  0  0  0  0
 17 18  4  0  0  0  0
 18 19  4  0  0  0  0
 19 20  4  0  0  0  0
 20 21  4  0  0  0  0
 17 21  4  0  0  0  0
 21 22  1  0  0  0  0
 22 23  1  0  0  0  0
 22 24  1  0  0  0  0
 18 25  1  0  0  0  0
 11 25  1  0  0  0  0
  5 26  4  0  0  0  0
 26 27  4  0  0  0  0
 27 28  1  0  0  0  0
 28 29  4  0  0  0  0
 29 30  4  0  0  0  0
 30 31  4  0  0  0  0
 31 32  1  0  0  0  0
 32 33  2  0  0  0  0
 32 34  1  0  0  0  0
 31 35  4  0  0  0  0
 35 36  4  0  0  0  0
 28 36  4  0  0  0  0
 27 37  4  0  0  0  0
  3 37  4  0  0  0  0
M  END
>  <CdId>
653

>  <Mol Weight>
502.571

>  <Formula>
C28H30N4O5

>  <Molecule ChEMBL ID>
CHEMBL4567446

>  <Molecule Name>
CLESACOSTAT

>  <Molecule Max Phase>
2

>  <Molecular Weight>
502.57

>  <#RO5 Violations>
1

>  <AlogP>
4.28

>  <Compound Key>
12; PF-05221304

>  <Standard Type>
IC50

>  <Standard Relation>
'>'

>  <Standard Value>
50000.0

>  <Standard Units>
nM

$$$$

  Mrv2114 03112311372D          

 40 44  0  0  1  0            999 V2000
   -3.0587    0.0165    0.0000 C   0  0  0  0  0  0  0  0  0  0  0  0
   -2.6462    0.7310    0.0000 C   0  0  2  0  0  0  0  0  0  0  0  0
   -1.8212    0.7310    0.0000 C   0  0  0  0  0  0  0  0  0  0  0  0
   -1.4087    1.4455    0.0000 C   0  0  0  0  0  0  0  0  0  0  0  0
   -0.5837    1.4455    0.0000 C   0  0  0  0  0  0  0  0  0  0  0  0
   -0.1712    0.7310    0.0000 N   0  0  0  0  0  0  0  0  0  0  0  0
   -0.5837    0.0165    0.0000 C   0  0  0  0  0  0  0  0  0  0  0  0
   -0.1712   -0.6979    0.0000 N   0  0  0  0  0  0  0  0  0  0  0  0
    0.6538   -0.6979    0.0000 C   0  0  0  0  0  0  0  0  0  0  0  0
    1.1387   -0.0305    0.0000 N   0  0  0  0  0  0  0  0  0  0  0  0
    1.9233   -0.2854    0.0000 C   0  0  0  0  0  0  0  0  0  0  0  0
    2.6378    0.1271    0.0000 C   0  0  0  0  0  0  0  0  0  0  0  0
    3.3523   -0.2854    0.0000 C   0  0  0  0  0  0  0  0  0  0  0  0
    3.3523   -1.1104    0.0000 C   0  0  0  0  0  0  0  0  0  0  0  0
    4.0668   -1.5229    0.0000 C   0  0  0  0  0  0  0  0  0  0  0  0
    4.7812   -1.1104    0.0000 C   0  0  0  0  0  0  0  0  0  0  0  0
    5.4957   -1.5229    0.0000 C   0  0  0  0  0  0  0  0  0  0  0  0
    6.2102   -1.1104    0.0000 N   0  0  0  0  0  0  0  0  0  0  0  0
    6.9246   -1.5229    0.0000 C   0  0  0  0  0  0  0  0  0  0  0  0
    6.2102   -0.2854    0.0000 C   0  0  0  0  0  0  0  0  0  0  0  0
    5.4957   -2.3479    0.0000 N   0  0  0  0  0  0  0  0  0  0  0  0
    4.7812   -2.7604    0.0000 C   0  0  0  0  0  0  0  0  0  0  0  0
    4.0668   -2.3479    0.0000 N   0  0  0  0  0  0  0  0  0  0  0  0
    2.6378   -1.5229    0.0000 C   0  0  0  0  0  0  0  0  0  0  0  0
    1.9233   -1.1104    0.0000 C   0  0  0  0  0  0  0  0  0  0  0  0
    1.1387   -1.3654    0.0000 N   0  0  0  0  0  0  0  0  0  0  0  0
   -1.4087    0.0165    0.0000 C   0  0  0  0  0  0  0  0  0  0  0  0
   -3.0587    1.4455    0.0000 N   0  0  0  0  0  0  0  0  0  0  0  0
   -3.8837    1.4455    0.0000 C   0  0  0  0  0  0  0  0  0  0  0  0
   -4.2962    2.1599    0.0000 C   0  0  0  0  0  0  0  0  0  0  0  0
   -3.8837    2.8744    0.0000 N   0  0  0  0  0  0  0  0  0  0  0  0
   -4.2962    3.5889    0.0000 C   0  0  0  0  0  0  0  0  0  0  0  0
   -5.1212    3.5889    0.0000 O   0  0  0  0  0  0  0  0  0  0  0  0
   -3.8837    4.3034    0.0000 C   0  0  0  0  0  0  0  0  0  0  0  0
   -4.2962    5.0178    0.0000 C   0  0  0  0  0  0  0  0  0  0  0  0
   -4.7087    5.7323    0.0000 F   0  0  0  0  0  0  0  0  0  0  0  0
   -3.5817    5.4303    0.0000 F   0  0  0  0  0  0  0  0  0  0  0  0
   -5.0107    4.6053    0.0000 F   0  0  0  0  0  0  0  0  0  0  0  0
   -3.0587    2.8744    0.0000 C   0  0  0  0  0  0  0  0  0  0  0  0
   -2.6462    2.1599    0.0000 C   0  0  0  0  0  0  0  0  0  0  0  0
  2  1  1  1  0  0  0
  2  3  1  0  0  0  0
  3  4  4  0  0  0  0
  4  5  4  0  0  0  0
  5  6  4  0  0  0  0
  6  7  4  0  0  0  0
  7  8  1  0  0  0  0
  8  9  1  0  0  0  0
  9 10  4  0  0  0  0
 10 11  4  0  0  0  0
 11 12  4  0  0  0  0
 12 13  4  0  0  0  0
 13 14  4  0  0  0  0
 14 15  1  0  0  0  0
 15 16  4  0  0  0  0
 16 17  4  0  0  0  0
 17 18  1  0  0  0  0
 18 19  1  0  0  0  0
 18 20  1  0  0  0  0
 17 21  4  0  0  0  0
 21 22  4  0  0  0  0
 22 23  4  0  0  0  0
 15 23  4  0  0  0  0
 14 24  4  0  0  0  0
 24 25  4  0  0  0  0
 11 25  4  0  0  0  0
 25 26  4  0  0  0  0
  9 26  4  0  0  0  0
  7 27  4  0  0  0  0
  3 27  4  0  0  0  0
  2 28  1  0  0  0  0
 28 29  1  0  0  0  0
 29 30  1  0  0  0  0
 30 31  1  0  0  0  0
 31 32  1  0  0  0  0
 32 33  2  0  0  0  0
 32 34  1  0  0  0  0
 34 35  1  0  0  0  0
 35 36  1  0  0  0  0
 35 37  1  0  0  0  0
 35 38  1  0  0  0  0
 31 39  1  0  0  0  0
 39 40  1  0  0  0  0
 28 40  1  0  0  0  0
M  STY  1   1 DAT
M  SAL   1  1  26
M  SDT   1 MRV_IMPLICIT_H                                        
M  SDD   1     0.0000    0.0000    DR    ALL  0       0  
M  SED   1 IMPL_H1
M  END
>  <CdId>
654

>  <Mol Weight>
553.594

>  <Formula>
C27H30F3N9O

>  <Molecule ChEMBL ID>
CHEMBL4537673

>  <Molecule Name>
BAY-985

>  <Molecule Max Phase>
None

>  <Molecular Weight>
553.59

>  <#RO5 Violations>
1

>  <AlogP>
4.38

>  <Compound Key>
34; BAY-985

>  <Standard Type>
IC50

>  <Standard Relation>
'='

>  <Standard Value>
860.0

>  <Standard Units>
nM

$$$$

  Mrv2114 03112311372D          

 45 49  0  0  1  0            999 V2000
   -1.6382   -3.9864    0.0000 C   0  0  0  0  0  0  0  0  0  0  0  0
   -1.7845   -3.1744    0.0000 C   0  0  1  0  0  0  0  0  0  0  0  0
   -2.5607   -2.8951    0.0000 C   0  0  0  0  0  0  0  0  0  0  0  0
   -2.7070   -2.0832    0.0000 C   0  0  2  0  0  0  0  0  0  0  0  0
   -3.4833   -1.8039    0.0000 C   0  0  0  0  0  0  0  0  0  0  0  0
   -3.6295   -0.9919    0.0000 O   0  0  0  0  0  0  0  0  0  0  0  0
   -4.1133   -2.3365    0.0000 O   0  0  0  0  0  0  0  0  0  0  0  0
   -2.0769   -1.5506    0.0000 C   0  0  0  0  0  0  0  0  0  0  0  0
   -1.3007   -1.8299    0.0000 C   0  0  0  0  0  0  0  0  0  0  0  0
   -1.1544   -2.6418    0.0000 C   0  0  1  0  0  0  0  0  0  0  0  0
   -0.3781   -2.9211    0.0000 C   0  0  0  0  0  0  0  0  0  0  0  0
   -0.2319   -3.7331    0.0000 O   0  0  0  0  0  0  0  0  0  0  0  0
    0.2519   -2.3885    0.0000 N   0  0  0  0  0  0  0  0  0  0  0  0
    0.1913   -1.5657    0.0000 C   0  0  0  0  0  0  0  0  0  0  0  0
    0.9551   -1.2539    0.0000 C   0  0  0  0  0  0  0  0  0  0  0  0
    1.4877   -1.8839    0.0000 C   0  0  1  0  0  0  0  0  0  0  0  0
    1.8467   -1.1411    0.0000 S   0  0  0  0  0  0  0  0  0  0  0  0
    2.5737   -0.7511    0.0000 O   0  0  0  0  0  0  0  0  0  0  0  0
    1.1038   -0.7822    0.0000 O   0  0  0  0  0  0  0  0  0  0  0  0
    2.2056   -0.3983    0.0000 C   0  0  0  0  0  0  0  0  0  0  0  0
    1.7417    0.2840    0.0000 C   0  0  0  0  0  0  0  0  0  0  0  0
    2.1007    1.0268    0.0000 C   0  0  0  0  0  0  0  0  0  0  0  0
    2.9234    1.0874    0.0000 C   0  0  0  0  0  0  0  0  0  0  0  0
    3.2824    1.8302    0.0000 F   0  0  0  0  0  0  0  0  0  0  0  0
    3.3873    0.4051    0.0000 C   0  0  0  0  0  0  0  0  0  0  0  0
    3.0284   -0.3377    0.0000 C   0  0  0  0  0  0  0  0  0  0  0  0
    2.3123   -1.9097    0.0000 C   0  0  0  0  0  0  0  0  0  0  0  0
    2.7469   -1.2084    0.0000 C   0  0  0  0  0  0  0  0  0  0  0  0
    3.5715   -1.2342    0.0000 C   0  0  0  0  0  0  0  0  0  0  0  0
    3.9615   -1.9612    0.0000 C   0  0  0  0  0  0  0  0  0  0  0  0
    4.7861   -1.9870    0.0000 C   0  0  0  0  0  0  0  0  0  0  0  0
    4.8119   -1.1624    0.0000 F   0  0  0  0  0  0  0  0  0  0  0  0
    4.7603   -2.8116    0.0000 C   0  0  0  0  0  0  0  0  0  0  0  0
    4.7346   -3.6362    0.0000 F   0  0  0  0  0  0  0  0  0  0  0  0
    3.9358   -2.7858    0.0000 F   0  0  0  0  0  0  0  0  0  0  0  0
    5.5849   -2.8373    0.0000 F   0  0  0  0  0  0  0  0  0  0  0  0
    5.6107   -2.0127    0.0000 C   0  0  0  0  0  0  0  0  0  0  0  0
    6.4353   -2.0385    0.0000 F   0  0  0  0  0  0  0  0  0  0  0  0
    6.0746   -2.6950    0.0000 F   0  0  0  0  0  0  0  0  0  0  0  0
    5.6365   -1.1881    0.0000 F   0  0  0  0  0  0  0  0  0  0  0  0
    3.5269   -2.6624    0.0000 C   0  0  0  0  0  0  0  0  0  0  0  0
    2.7023   -2.6367    0.0000 C   0  0  0  0  0  0  0  0  0  0  0  0
    2.2677   -3.3379    0.0000 C   0  0  0  0  0  0  0  0  0  0  0  0
    1.4431   -3.3122    0.0000 C   0  0  0  0  0  0  0  0  0  0  0  0
    1.0531   -2.5852    0.0000 C   0  0  1  0  0  0  0  0  0  0  0  0
  2  1  1  1  0  0  0
  2  3  1  0  0  0  0
  4  3  1  0  0  0  0
  4  5  1  6  0  0  0
  5  6  2  0  0  0  0
  5  7  1  0  0  0  0
  4  8  1  0  0  0  0
  8  9  1  0  0  0  0
 10  9  1  0  0  0  0
  2 10  1  0  0  0  0
 10 11  1  1  0  0  0
 11 12  2  0  0  0  0
 11 13  1  0  0  0  0
 13 14  1  0  0  0  0
 14 15  1  0  0  0  0
 16 15  1  0  0  0  0
 16 17  1  6  0  0  0
 17 18  2  0  0  0  0
 17 19  2  0  0  0  0
 17 20  1  0  0  0  0
 20 21  4  0  0  0  0
 21 22  4  0  0  0  0
 22 23  4  0  0  0  0
 23 24  1  0  0  0  0
 23 25  4  0  0  0  0
 25 26  4  0  0  0  0
 20 26  4  0  0  0  0
 16 27  1  0  0  0  0
 27 28  4  0  0  0  0
 28 29  4  0  0  0  0
 29 30  4  0  0  0  0
 30 31  1  0  0  0  0
 31 32  1  0  0  0  0
 31 33  1  0  0  0  0
 33 34  1  0  0  0  0
 33 35  1  0  0  0  0
 33 36  1  0  0  0  0
 31 37  1  0  0  0  0
 37 38  1  0  0  0  0
 37 39  1  0  0  0  0
 37 40  1  0  0  0  0
 30 41  4  0  0  0  0
 41 42  4  0  0  0  0
 27 42  4  0  0  0  0
 42 43  1  0  0  0  0
 43 44  1  0  0  0  0
 45 44  1  0  0  0  0
 45 13  1  1  0  0  0
 16 45  1  0  0  0  0
M  END
>  <CdId>
655

>  <Mol Weight>
667.61

>  <Formula>
C30H29F8NO5S

>  <Molecule ChEMBL ID>
CHEMBL4634542

>  <Molecule Name>
BMS-986251

>  <Molecule Max Phase>
1

>  <Molecular Weight>
667.62

>  <#RO5 Violations>
2

>  <AlogP>
6.47

>  <Compound Key>
5; BMS-986251

>  <Standard Type>
IC50

>  <Standard Relation>
'='

>  <Standard Value>
16000.0

>  <Standard Units>
nM

$$$$

  Mrv2114 03112311372D          

 16 15  0  0  0  0            999 V2000
    0.0000    0.0000    0.0000 Cl  0  0  0  0  0  0  0  0  0  0  0  0
    2.0036    0.0000    0.0000 Cl  0  0  0  0  0  0  0  0  0  0  0  0
   -1.1738   -6.1875    0.0000 N   0  0  0  0  0  0  0  0  0  0  0  0
   -0.4593   -5.7750    0.0000 C   0  0  0  0  0  0  0  0  0  0  0  0
   -0.4593   -4.9500    0.0000 C   0  0  0  0  0  0  0  0  0  0  0  0
   -0.4593   -4.1250    0.0000 C   0  0  0  0  0  0  0  0  0  0  0  0
   -0.4593   -3.3000    0.0000 C   0  0  0  0  0  0  0  0  0  0  0  0
   -1.1738   -2.8875    0.0000 C   0  0  0  0  0  0  0  0  0  0  0  0
   -1.1738   -2.0625    0.0000 N   0  0  0  0  0  0  0  0  0  0  0  0
   -0.4593   -1.6500    0.0000 C   0  0  0  0  0  0  0  0  0  0  0  0
    0.2552   -2.0625    0.0000 C   0  0  0  0  0  0  0  0  0  0  0  0
    0.9696   -1.6500    0.0000 C   0  0  0  0  0  0  0  0  0  0  0  0
    1.6841   -2.0625    0.0000 C   0  0  0  0  0  0  0  0  0  0  0  0
    1.6841   -2.8875    0.0000 C   0  0  0  0  0  0  0  0  0  0  0  0
    0.9696   -3.3000    0.0000 C   0  0  0  0  0  0  0  0  0  0  0  0
    0.2552   -2.8875    0.0000 C   0  0  0  0  0  0  0  0  0  0  0  0
  3  4  1  0  0  0  0
  4  5  1  0  0  0  0
  5  6  3  0  0  0  0
  6  7  1  0  0  0  0
  7  8  4  0  0  0  0
  8  9  4  0  0  0  0
  9 10  4  0  0  0  0
 10 11  4  0  0  0  0
 11 12  4  0  0  0  0
 12 13  4  0  0  0  0
 13 14  4  0  0  0  0
 14 15  4  0  0  0  0
 15 16  4  0  0  0  0
  7 16  4  0  0  0  0
 11 16  4  0  0  0  0
M  END
>  <CdId>
656

>  <Mol Weight>
255.14

>  <Formula>
C12H12Cl2N2

>  <Molecule ChEMBL ID>
CHEMBL4160946

>  <Molecule Max Phase>
None

>  <Molecular Weight>
255.15

>  <#RO5 Violations>
0

>  <AlogP>
1.54

>  <Compound Key>
4b

>  <Standard Type>
IC50

$$$$

  Mrv2114 03112311372D          

 15 16  0  0  0  0            999 V2000
   -1.8212   -2.1269    0.0000 C   0  0  0  0  0  0  0  0  0  0  0  0
   -1.4087   -1.4124    0.0000 C   0  0  0  0  0  0  0  0  0  0  0  0
   -0.5837   -1.4124    0.0000 C   0  0  0  0  0  0  0  0  0  0  0  0
   -0.1712   -0.6979    0.0000 S   0  0  0  0  0  0  0  0  0  0  0  0
    0.6538   -0.6979    0.0000 C   0  0  0  0  0  0  0  0  0  0  0  0
    1.1387   -0.0305    0.0000 N   0  0  0  0  0  0  0  0  0  0  0  0
    1.9233   -0.2854    0.0000 C   0  0  0  0  0  0  0  0  0  0  0  0
    2.6378    0.1271    0.0000 C   0  0  0  0  0  0  0  0  0  0  0  0
    3.3523   -0.2854    0.0000 C   0  0  0  0  0  0  0  0  0  0  0  0
    4.0668    0.1271    0.0000 O   0  0  0  0  0  0  0  0  0  0  0  0
    4.0668    0.9521    0.0000 C   0  0  0  0  0  0  0  0  0  0  0  0
    3.3523   -1.1104    0.0000 C   0  0  0  0  0  0  0  0  0  0  0  0
    2.6378   -1.5229    0.0000 C   0  0  0  0  0  0  0  0  0  0  0  0
    1.9233   -1.1104    0.0000 C   0  0  0  0  0  0  0  0  0  0  0  0
    1.1387   -1.3654    0.0000 N   0  0  0  0  0  0  0  0  0  0  0  0
  1  2  1  0  0  0  0
  2  3  1  0  0  0  0
  3  4  1  0  0  0  0
  4  5  1  0  0  0  0
  5  6  4  0  0  0  0
  6  7  4  0  0  0  0
  7  8  4  0  0  0  0
  8  9  4  0  0  0  0
  9 10  1  0  0  0  0
 10 11  1  0  0  0  0
  9 12  4  0  0  0  0
 12 13  4  0  0  0  0
 13 14  4  0  0  0  0
  7 14  4  0  0  0  0
 14 15  4  0  0  0  0
  5 15  4  0  0  0  0
M  STY  1   1 DAT
M  SAL   1  1  15
M  SDT   1 MRV_IMPLICIT_H                                        
M  SDD   1     0.0000    0.0000    DR    ALL  0       0  
M  SED   1 IMPL_H1
M  END
>  <CdId>
657

>  <Mol Weight>
222.31

>  <Formula>
C11H14N2OS

>  <Molecule ChEMBL ID>
CHEMBL2018905

>  <Molecule Max Phase>
None

>  <Molecular Weight>
222.31

>  <#RO5 Violations>
0

>  <AlogP>
3.07

>  <Compound Key>
2

>  <Standard Type>
IC50

>  <Standard Relation>
'='

>  <Standard Value>
3120.0

>  <Standard Units>
nM

$$$$

  Mrv2114 03112311372D          

 27 27  0  0  0  0            999 V2000
   -2.5720   -5.2767    0.0000 C   0  0  0  0  0  0  0  0  0  0  0  0
   -1.8575   -4.8642    0.0000 N   0  0  0  0  0  0  0  0  0  0  0  0
   -1.1430   -5.2767    0.0000 C   0  0  0  0  0  0  0  0  0  0  0  0
   -1.1430   -6.1017    0.0000 O   0  0  0  0  0  0  0  0  0  0  0  0
   -0.4286   -4.8642    0.0000 C   0  0  0  0  0  0  0  0  0  0  0  0
   -0.4286   -4.0392    0.0000 O   0  0  0  0  0  0  0  0  0  0  0  0
    0.2859   -5.2767    0.0000 N   0  0  0  0  0  0  0  0  0  0  0  0
    1.0004   -4.8642    0.0000 C   0  0  0  0  0  0  0  0  0  0  0  0
    1.7148   -5.2767    0.0000 C   0  0  0  0  0  0  0  0  0  0  0  0
    2.4293   -4.8642    0.0000 C   0  0  0  0  0  0  0  0  0  0  0  0
    3.1438   -5.2767    0.0000 C   0  0  0  0  0  0  0  0  0  0  0  0
    3.8583   -4.8642    0.0000 C   0  0  0  0  0  0  0  0  0  0  0  0
    4.5727   -5.2767    0.0000 C   0  0  0  0  0  0  0  0  0  0  0  0
    5.2872   -4.8642    0.0000 C   0  0  0  0  0  0  0  0  0  0  0  0
    6.0017   -5.2767    0.0000 C   0  0  0  0  0  0  0  0  0  0  0  0
    6.7161   -4.8642    0.0000 C   0  0  0  0  0  0  0  0  0  0  0  0
    7.4306   -5.2767    0.0000 C   0  0  0  0  0  0  0  0  0  0  0  0
    8.1451   -4.8642    0.0000 C   0  0  0  0  0  0  0  0  0  0  0  0
    8.8596   -5.2767    0.0000 C   0  0  0  0  0  0  0  0  0  0  0  0
    9.5740   -4.8642    0.0000 C   0  0  0  0  0  0  0  0  0  0  0  0
   10.2885   -5.2767    0.0000 C   0  0  0  0  0  0  0  0  0  0  0  0
   11.0030   -4.8642    0.0000 C   0  0  0  0  0  0  0  0  0  0  0  0
   11.7174   -5.2767    0.0000 C   0  0  0  0  0  0  0  0  0  0  0  0
   12.4711   -4.9411    0.0000 N   0  0  0  0  0  0  0  0  0  0  0  0
   13.0232   -5.5542    0.0000 N   0  0  0  0  0  0  0  0  0  0  0  0
   12.6107   -6.2687    0.0000 N   0  0  0  0  0  0  0  0  0  0  0  0
   11.8037   -6.0971    0.0000 N   0  0  0  0  0  0  0  0  0  0  0  0
  1  2  1  0  0  0  0
  2  3  1  0  0  0  0
  3  4  2  0  0  0  0
  3  5  1  0  0  0  0
  5  6  2  0  0  0  0
  5  7  1  0  0  0  0
  7  8  1  0  0  0  0
  8  9  1  0  0  0  0
  9 10  1  0  0  0  0
 10 11  1  0  0  0  0
 12 11  1  4  0  0  0
 12 13  2  0  0  0  0
 13 14  1  0  0  0  0
 14 15  1  0  0  0  0
 15 16  1  0  0  0  0
 16 17  1  0  0  0  0
 17 18  1  0  0  0  0
 18 19  1  0  0  0  0
 19 20  1  0  0  0  0
 20 21  1  0  0  0  0
 21 22  1  0  0  0  0
 22 23  1  0  0  0  0
 23 24  4  0  0  0  0
 24 25  4  0  0  0  0
 25 26  4  0  0  0  0
 26 27  4  0  0  0  0
 23 27  4  0  0  0  0
M  STY  1   1 DAT
M  SAL   1  1  27
M  SDT   1 MRV_IMPLICIT_H                                        
M  SDD   1     0.0000    0.0000    DR    ALL  0       0  
M  SED   1 IMPL_H1
M  END
>  <CdId>
658

>  <Mol Weight>
378.521

>  <Formula>
C19H34N6O2

>  <Molecule ChEMBL ID>
CHEMBL4463477

>  <Molecule Max Phase>
None

>  <Molecular Weight>
378.52

>  <#RO5 Violations>
0

>  <AlogP>
2.45

>  <Compound Key>
16

>  <Standard Type>
IC50

>  <Standard Relation>
'>'

>  <Standard Value>
50000.0

>  <Standard Units>
nM

$$$$

  Mrv2114 03112311372D          

 18 19  0  0  0  0            999 V2000
   -2.3762    4.9642    0.0000 C   0  0  0  0  0  0  0  0  0  0  0  0
   -1.9637    4.2497    0.0000 O   0  0  0  0  0  0  0  0  0  0  0  0
   -1.1387    4.2497    0.0000 C   0  0  0  0  0  0  0  0  0  0  0  0
   -0.7262    4.9642    0.0000 C   0  0  0  0  0  0  0  0  0  0  0  0
    0.0988    4.9642    0.0000 C   0  0  0  0  0  0  0  0  0  0  0  0
    0.5113    4.2497    0.0000 C   0  0  0  0  0  0  0  0  0  0  0  0
    1.3183    4.0782    0.0000 N   0  0  0  0  0  0  0  0  0  0  0  0
    1.4045    3.2577    0.0000 C   0  0  0  0  0  0  0  0  0  0  0  0
    2.1190    2.8452    0.0000 S   0  0  0  0  0  0  0  0  0  0  0  0
    2.8334    3.2577    0.0000 C   0  0  0  0  0  0  0  0  0  0  0  0
    3.5479    2.8452    0.0000 C   0  0  0  0  0  0  0  0  0  0  0  0
    4.2624    3.2577    0.0000 C   0  0  0  0  0  0  0  0  0  0  0  0
    4.9769    2.8452    0.0000 C   0  0  0  0  0  0  0  0  0  0  0  0
    5.6913    3.2577    0.0000 O   0  0  0  0  0  0  0  0  0  0  0  0
    4.9769    2.0202    0.0000 O   0  0  0  0  0  0  0  0  0  0  0  0
    0.6508    2.9221    0.0000 N   0  0  0  0  0  0  0  0  0  0  0  0
    0.0988    3.5352    0.0000 C   0  0  0  0  0  0  0  0  0  0  0  0
   -0.7262    3.5352    0.0000 C   0  0  0  0  0  0  0  0  0  0  0  0
  1  2  1  0  0  0  0
  2  3  1  0  0  0  0
  3  4  4  0  0  0  0
  4  5  4  0  0  0  0
  5  6  4  0  0  0  0
  6  7  4  0  0  0  0
  7  8  4  0  0  0  0
  8  9  1  0  0  0  0
  9 10  1  0  0  0  0
 10 11  1  0  0  0  0
 11 12  1  0  0  0  0
 12 13  1  0  0  0  0
 13 14  2  0  0  0  0
 13 15  1  0  0  0  0
  8 16  4  0  0  0  0
 16 17  4  0  0  0  0
  6 17  4  0  0  0  0
 17 18  4  0  0  0  0
  3 18  4  0  0  0  0
M  STY  1   1 DAT
M  SAL   1  1   7
M  SDT   1 MRV_IMPLICIT_H                                        
M  SDD   1     0.0000    0.0000    DR    ALL  0       0  
M  SED   1 IMPL_H1
M  END
>  <CdId>
659

>  <Mol Weight>
266.32

>  <Formula>
C12H14N2O3S

>  <Molecule ChEMBL ID>
CHEMBL2018914

>  <Molecule Max Phase>
None

>  <Molecular Weight>
266.32

>  <#RO5 Violations>
0

>  <AlogP>
2.53

>  <Compound Key>
12

>  <Standard Type>
IC50

>  <Standard Relation>
'>'

>  <Standard Value>
50000.0

>  <Standard Units>
nM

$$$$

  Mrv2114 03112311372D          

 18 19  0  0  0  0            999 V2000
    3.1650   -3.4491    0.0000 C   0  0  0  0  0  0  0  0  0  0  0  0
    3.8795   -3.8616    0.0000 C   0  0  0  0  0  0  0  0  0  0  0  0
    4.5940   -3.4491    0.0000 C   0  0  0  0  0  0  0  0  0  0  0  0
    5.3084   -3.8616    0.0000 C   0  0  0  0  0  0  0  0  0  0  0  0
    6.0229   -3.4491    0.0000 C   0  0  0  0  0  0  0  0  0  0  0  0
    6.7374   -3.8616    0.0000 C   0  0  0  0  0  0  0  0  0  0  0  0
    7.4519   -3.4491    0.0000 S   0  0  0  0  0  0  0  0  0  0  0  0
    8.1663   -3.8616    0.0000 C   0  0  0  0  0  0  0  0  0  0  0  0
    8.9200   -3.5261    0.0000 N   0  0  0  0  0  0  0  0  0  0  0  0
    9.4720   -4.1392    0.0000 C   0  0  0  0  0  0  0  0  0  0  0  0
   10.2970   -4.1392    0.0000 C   0  0  0  0  0  0  0  0  0  0  0  0
   10.7095   -4.8536    0.0000 C   0  0  0  0  0  0  0  0  0  0  0  0
   11.5345   -4.8536    0.0000 O   0  0  0  0  0  0  0  0  0  0  0  0
   11.9470   -4.1392    0.0000 C   0  0  0  0  0  0  0  0  0  0  0  0
   10.2970   -5.5681    0.0000 C   0  0  0  0  0  0  0  0  0  0  0  0
    9.4720   -5.5681    0.0000 C   0  0  0  0  0  0  0  0  0  0  0  0
    9.0595   -4.8536    0.0000 C   0  0  0  0  0  0  0  0  0  0  0  0
    8.2526   -4.6821    0.0000 N   0  0  0  0  0  0  0  0  0  0  0  0
  1  2  1  0  0  0  0
  2  3  1  0  0  0  0
  3  4  1  0  0  0  0
  4  5  1  0  0  0  0
  5  6  1  0  0  0  0
  6  7  1  0  0  0  0
  7  8  1  0  0  0  0
  8  9  4  0  0  0  0
  9 10  4  0  0  0  0
 10 11  4  0  0  0  0
 11 12  4  0  0  0  0
 12 13  1  0  0  0  0
 13 14  1  0  0  0  0
 12 15  4  0  0  0  0
 15 16  4  0  0  0  0
 16 17  4  0  0  0  0
 10 17  4  0  0  0  0
 17 18  4  0  0  0  0
  8 18  4  0  0  0  0
M  STY  1   1 DAT
M  SAL   1  1  18
M  SDT   1 MRV_IMPLICIT_H                                        
M  SDD   1     0.0000    0.0000    DR    ALL  0       0  
M  SED   1 IMPL_H1
M  END
>  <CdId>
660

>  <Mol Weight>
264.39

>  <Formula>
C14H20N2OS

>  <Molecule ChEMBL ID>
CHEMBL2018907

>  <Molecule Max Phase>
None

>  <Molecular Weight>
264.39

>  <#RO5 Violations>
0

>  <AlogP>
4.24

>  <Compound Key>
5

>  <Standard Type>
IC50

>  <Standard Relation>
'='

>  <Standard Value>
2420.0

>  <Standard Units>
nM

$$$$

  Mrv2114 03112311372D          

 28 31  0  0  0  0            999 V2000
    5.4896   -1.6384    0.0000 O   0  0  0  0  0  0  0  0  0  0  0  0
    5.6358   -0.8265    0.0000 C   0  0  0  0  0  0  0  0  0  0  0  0
    5.0058   -0.2939    0.0000 C   0  0  0  0  0  0  0  0  0  0  0  0
    4.2295   -0.5732    0.0000 C   0  0  0  0  0  0  0  0  0  0  0  0
    3.5995   -0.0406    0.0000 C   0  0  0  0  0  0  0  0  0  0  0  0
    3.6601    0.7822    0.0000 N   0  0  0  0  0  0  0  0  0  0  0  0
    2.8963    1.0941    0.0000 O   0  0  0  0  0  0  0  0  0  0  0  0
    2.3637    0.4640    0.0000 C   0  0  0  0  0  0  0  0  0  0  0  0
    2.7983   -0.2372    0.0000 C   0  0  0  0  0  0  0  0  0  0  0  0
    2.4083   -0.9642    0.0000 C   0  0  0  0  0  0  0  0  0  0  0  0
    1.5837   -0.9900    0.0000 C   0  0  0  0  0  0  0  0  0  0  0  0
    1.1491   -0.2887    0.0000 C   0  0  0  0  0  0  0  0  0  0  0  0
    0.3245   -0.3145    0.0000 C   0  0  0  0  0  0  0  0  0  0  0  0
   -0.1101    0.3867    0.0000 C   0  0  0  0  0  0  0  0  0  0  0  0
   -0.9347    0.3610    0.0000 O   0  0  0  0  0  0  0  0  0  0  0  0
    0.2799    1.1137    0.0000 C   0  0  0  0  0  0  0  0  0  0  0  0
    1.1045    1.1395    0.0000 C   0  0  0  0  0  0  0  0  0  0  0  0
    1.5391    0.4383    0.0000 C   0  0  0  0  0  0  0  0  0  0  0  0
    6.4121   -0.5472    0.0000 N   0  0  0  0  0  0  0  0  0  0  0  0
    7.0422   -1.0798    0.0000 C   0  0  0  0  0  0  0  0  0  0  0  0
    6.8959   -1.8917    0.0000 C   0  0  0  0  0  0  0  0  0  0  0  0
    7.5259   -2.4243    0.0000 C   0  0  0  0  0  0  0  0  0  0  0  0
    8.3022   -2.1450    0.0000 C   0  0  0  0  0  0  0  0  0  0  0  0
    8.4485   -1.3331    0.0000 C   0  0  0  0  0  0  0  0  0  0  0  0
    7.8184   -0.8005    0.0000 C   0  0  0  0  0  0  0  0  0  0  0  0
    7.9647    0.0115    0.0000 C   0  0  0  0  0  0  0  0  0  0  0  0
    7.3346    0.5441    0.0000 O   0  0  0  0  0  0  0  0  0  0  0  0
    8.7410    0.2908    0.0000 O   0  0  0  0  0  0  0  0  0  0  0  0
  1  2  2  0  0  0  0
  2  3  1  0  0  0  0
  3  4  1  0  0  0  0
  4  5  1  0  0  0  0
  5  6  4  0  0  0  0
  6  7  4  0  0  0  0
  7  8  4  0  0  0  0
  8  9  4  0  0  0  0
  5  9  4  0  0  0  0
  9 10  1  0  0  0  0
 10 11  1  0  0  0  0
 11 12  1  0  0  0  0
 12 13  4  0  0  0  0
 13 14  4  0  0  0  0
 14 15  1  0  0  0  0
 14 16  4  0  0  0  0
 16 17  4  0  0  0  0
 17 18  4  0  0  0  0
 12 18  4  0  0  0  0
  8 18  1  0  0  0  0
  2 19  1  0  0  0  0
 19 20  1  0  0  0  0
 20 21  4  0  0  0  0
 21 22  4  0  0  0  0
 22 23  4  0  0  0  0
 23 24  4  0  0  0  0
 24 25  4  0  0  0  0
 20 25  4  0  0  0  0
 25 26  1  0  0  0  0
 26 27  2  0  0  0  0
 26 28  1  0  0  0  0
M  END
>  <CdId>
661

>  <Mol Weight>
378.384

>  <Formula>
C21H18N2O5

>  <Molecule ChEMBL ID>
CHEMBL483353

>  <Molecule Max Phase>
None

>  <Molecular Weight>
378.38

>  <#RO5 Violations>
0

>  <AlogP>
3.42

>  <Compound Key>
2e

>  <Standard Type>
IC50

>  <Standard Relation>
'='

>  <Standard Value>
5900.0

>  <Standard Units>
nM

$$$$

  Mrv2114 03112311372D          

 36 40  0  0  1  0            999 V2000
   10.2968    5.3311    0.0000 C   0  0  0  0  0  0  0  0  0  0  0  0
    9.9613    4.5775    0.0000 C   0  0  0  0  0  0  0  0  0  0  0  0
   10.3738    3.8630    0.0000 N   0  0  0  0  0  0  0  0  0  0  0  0
    9.8217    3.2499    0.0000 C   0  0  0  0  0  0  0  0  0  0  0  0
    9.0681    3.5854    0.0000 N   0  0  0  0  0  0  0  0  0  0  0  0
    8.3536    3.1729    0.0000 C   0  0  0  0  0  0  0  0  0  0  0  0
    8.3536    2.3479    0.0000 C   0  0  0  0  0  0  0  0  0  0  0  0
    7.6391    1.9354    0.0000 C   0  0  0  0  0  0  0  0  0  0  0  0
    7.6391    1.1104    0.0000 Cl  0  0  0  0  0  0  0  0  0  0  0  0
    6.9246    2.3479    0.0000 C   0  0  0  0  0  0  0  0  0  0  0  0
    6.2102    1.9354    0.0000 C   0  0  0  0  0  0  0  0  0  0  0  0
    6.2102    1.1104    0.0000 O   0  0  0  0  0  0  0  0  0  0  0  0
    5.4957    2.3479    0.0000 N   0  0  0  0  0  0  0  0  0  0  0  0
    4.7812    1.9354    0.0000 C   0  0  0  0  0  0  0  0  0  0  0  0
    4.0668    2.3479    0.0000 C   0  0  1  0  0  0  0  0  0  0  0  0
    4.0668    3.1729    0.0000 C   0  0  0  0  0  0  0  0  0  0  0  0
    3.3523    3.5854    0.0000 C   0  0  0  0  0  0  0  0  0  0  0  0
    3.3523    4.4104    0.0000 C   0  0  0  0  0  0  0  0  0  0  0  0
    4.0668    4.8229    0.0000 C   0  0  0  0  0  0  0  0  0  0  0  0
    4.7812    4.4104    0.0000 C   0  0  0  0  0  0  0  0  0  0  0  0
    5.4957    4.8229    0.0000 F   0  0  0  0  0  0  0  0  0  0  0  0
    4.7812    3.5854    0.0000 C   0  0  0  0  0  0  0  0  0  0  0  0
    3.3523    1.9354    0.0000 C   0  0  0  0  0  0  0  0  0  0  0  0
    3.3523    1.1104    0.0000 C   0  0  0  0  0  0  0  0  0  0  0  0
    2.6378    0.6979    0.0000 C   0  0  0  0  0  0  0  0  0  0  0  0
    1.9233    1.1104    0.0000 C   0  0  0  0  0  0  0  0  0  0  0  0
    1.1387    0.8555    0.0000 N   0  0  0  0  0  0  0  0  0  0  0  0
    0.6538    1.5229    0.0000 C   0  0  0  0  0  0  0  0  0  0  0  0
   -0.1712    1.5229    0.0000 C   0  0  0  0  0  0  0  0  0  0  0  0
    1.1387    2.1904    0.0000 N   0  0  0  0  0  0  0  0  0  0  0  0
    1.9233    1.9354    0.0000 C   0  0  0  0  0  0  0  0  0  0  0  0
    2.6378    2.3479    0.0000 C   0  0  0  0  0  0  0  0  0  0  0  0
    6.9246    3.1729    0.0000 C   0  0  0  0  0  0  0  0  0  0  0  0
    6.2102    3.5854    0.0000 Cl  0  0  0  0  0  0  0  0  0  0  0  0
    7.6391    3.5854    0.0000 C   0  0  0  0  0  0  0  0  0  0  0  0
    9.1543    4.4059    0.0000 N   0  0  0  0  0  0  0  0  0  0  0  0
  1  2  1  0  0  0  0
  2  3  4  0  0  0  0
  3  4  4  0  0  0  0
  4  5  4  0  0  0  0
  5  6  1  0  0  0  0
  6  7  4  0  0  0  0
  7  8  4  0  0  0  0
  8  9  1  0  0  0  0
  8 10  4  0  0  0  0
 10 11  1  0  0  0  0
 11 12  2  0  0  0  0
 11 13  1  0  0  0  0
 13 14  1  0  0  0  0
 15 14  1  6  0  0  0
 15 16  1  0  0  0  0
 16 17  4  0  0  0  0
 17 18  4  0  0  0  0
 18 19  4  0  0  0  0
 19 20  4  0  0  0  0
 20 21  1  0  0  0  0
 20 22  4  0  0  0  0
 16 22  4  0  0  0  0
 15 23  1  0  0  0  0
 23 24  4  0  0  0  0
 24 25  4  0  0  0  0
 25 26  4  0  0  0  0
 26 27  4  0  0  0  0
 27 28  4  0  0  0  0
 28 29  1  0  0  0  0
 28 30  4  0  0  0  0
 30 31  4  0  0  0  0
 26 31  4  0  0  0  0
 31 32  4  0  0  0  0
 23 32  4  0  0  0  0
 10 33  4  0  0  0  0
 33 34  1  0  0  0  0
 33 35  4  0  0  0  0
  6 35  4  0  0  0  0
  5 36  4  0  0  0  0
  2 36  4  0  0  0  0
M  STY  1   1 DAT
M  SAL   1  1  27
M  SDT   1 MRV_IMPLICIT_H                                        
M  SDD   1     0.0000    0.0000    DR    ALL  0       0  
M  SED   1 IMPL_H1
M  END
>  <CdId>
662

>  <Mol Weight>
523.39

>  <Formula>
C26H21Cl2FN6O

>  <Molecule ChEMBL ID>
CHEMBL3627897

>  <Molecule Max Phase>
None

>  <Molecular Weight>
523.4

>  <#RO5 Violations>
2

>  <AlogP>
5.77

>  <Compound Key>
12

>  <Standard Type>
IC50

>  <Standard Relation>
'='

>  <Standard Value>
1573.0

>  <Standard Units>
nM

$$$$

  Mrv2114 03112311372D          

 25 27  0  0  0  0            999 V2000
   -1.4087   -2.8414    0.0000 C   0  0  0  0  0  0  0  0  0  0  0  0
   -1.8212   -2.1269    0.0000 C   0  0  0  0  0  0  0  0  0  0  0  0
   -2.6462   -2.1269    0.0000 C   0  0  0  0  0  0  0  0  0  0  0  0
   -3.0587   -2.8414    0.0000 O   0  0  0  0  0  0  0  0  0  0  0  0
   -3.8837   -2.8414    0.0000 C   0  0  0  0  0  0  0  0  0  0  0  0
   -4.2962   -3.5558    0.0000 C   0  0  0  0  0  0  0  0  0  0  0  0
   -4.7087   -4.2703    0.0000 F   0  0  0  0  0  0  0  0  0  0  0  0
   -3.5817   -3.9683    0.0000 F   0  0  0  0  0  0  0  0  0  0  0  0
   -5.0107   -3.1433    0.0000 F   0  0  0  0  0  0  0  0  0  0  0  0
   -3.0587   -1.4124    0.0000 C   0  0  0  0  0  0  0  0  0  0  0  0
   -2.6462   -0.6979    0.0000 C   0  0  0  0  0  0  0  0  0  0  0  0
   -1.8212   -0.6979    0.0000 N   0  0  0  0  0  0  0  0  0  0  0  0
   -1.4087   -1.4124    0.0000 C   0  0  0  0  0  0  0  0  0  0  0  0
   -0.5837   -1.4124    0.0000 C   0  0  0  0  0  0  0  0  0  0  0  0
   -0.1712   -0.6979    0.0000 S   0  3  0  0  0  0  0  0  0  0  0  0
   -0.5837    0.0165    0.0000 O   0  5  0  0  0  0  0  0  0  0  0  0
    0.6538   -0.6979    0.0000 C   0  0  0  0  0  0  0  0  0  0  0  0
    1.1387   -0.0305    0.0000 N   0  0  0  0  0  0  0  0  0  0  0  0
    1.9233   -0.2854    0.0000 C   0  0  0  0  0  0  0  0  0  0  0  0
    2.6378    0.1271    0.0000 C   0  0  0  0  0  0  0  0  0  0  0  0
    3.3523   -0.2854    0.0000 C   0  0  0  0  0  0  0  0  0  0  0  0
    3.3523   -1.1104    0.0000 C   0  0  0  0  0  0  0  0  0  0  0  0
    2.6378   -1.5229    0.0000 C   0  0  0  0  0  0  0  0  0  0  0  0
    1.9233   -1.1104    0.0000 C   0  0  0  0  0  0  0  0  0  0  0  0
    1.1387   -1.3654    0.0000 N   0  0  0  0  0  0  0  0  0  0  0  0
  1  2  1  0  0  0  0
  2  3  4  0  0  0  0
  3  4  1  0  0  0  0
  4  5  1  0  0  0  0
  5  6  1  0  0  0  0
  6  7  1  0  0  0  0
  6  8  1  0  0  0  0
  6  9  1  0  0  0  0
  3 10  4  0  0  0  0
 10 11  4  0  0  0  0
 11 12  4  0  0  0  0
 12 13  4  0  0  0  0
  2 13  4  0  0  0  0
 13 14  1  0  0  0  0
 14 15  1  0  0  0  0
 15 16  1  0  0  0  0
 15 17  1  0  0  0  0
 17 18  4  0  0  0  0
 18 19  4  0  0  0  0
 19 20  4  0  0  0  0
 20 21  4  0  0  0  0
 21 22  4  0  0  0  0
 22 23  4  0  0  0  0
 23 24  4  0  0  0  0
 19 24  4  0  0  0  0
 24 25  4  0  0  0  0
 17 25  4  0  0  0  0
M  CHG  2  15   1  16  -1
M  STY  1   1 DAT
M  SAL   1  1  25
M  SDT   1 MRV_IMPLICIT_H                                        
M  SDD   1     0.0000    0.0000    DR    ALL  0       0  
M  SED   1 IMPL_H1
M  END
>  <CdId>
663

>  <Mol Weight>
369.36

>  <Formula>
C16H14F3N3O2S

>  <Molecule ChEMBL ID>
CHEMBL480

>  <Molecule Name>
LANSOPRAZOLE

>  <Molecule Max Phase>
4

>  <Molecular Weight>
369.37

>  <#RO5 Violations>
0

>  <AlogP>
3.52

>  <Compound Key>
lansoprazole

>  <Standard Type>
IC50

>  <Standard Relation>
'='

>  <Standard Value>
5750.0

>  <Standard Units>
nM

$$$$

  Mrv2114 03112311372D          

 42 47  0  0  0  0            999 V2000
   -3.5724   -7.0125    0.0000 C   0  0  0  0  0  0  0  0  0  0  0  0
   -3.5724   -6.1875    0.0000 N   0  0  0  0  0  0  0  0  0  0  0  0
   -2.8579   -5.7750    0.0000 C   0  0  0  0  0  0  0  0  0  0  0  0
   -2.1434   -6.1875    0.0000 C   0  0  0  0  0  0  0  0  0  0  0  0
   -2.8579   -4.9500    0.0000 C   0  0  0  0  0  0  0  0  0  0  0  0
   -3.5724   -4.5375    0.0000 O   0  0  0  0  0  0  0  0  0  0  0  0
   -2.1434   -4.5375    0.0000 N   0  0  0  0  0  0  0  0  0  0  0  0
   -2.1434   -3.7125    0.0000 C   0  0  0  0  0  0  0  0  0  0  0  0
   -2.8579   -3.3000    0.0000 C   0  0  0  0  0  0  0  0  0  0  0  0
   -2.8579   -2.4750    0.0000 C   0  0  0  0  0  0  0  0  0  0  0  0
   -2.1434   -2.0625    0.0000 C   0  0  0  0  0  0  0  0  0  0  0  0
   -2.1434   -1.2375    0.0000 C   0  0  0  0  0  0  0  0  0  0  0  0
   -2.8109   -0.7526    0.0000 C   0  0  0  0  0  0  0  0  0  0  0  0
   -3.5955   -1.0075    0.0000 C   0  0  0  0  0  0  0  0  0  0  0  0
   -3.7670   -1.8145    0.0000 C   0  0  0  0  0  0  0  0  0  0  0  0
   -4.5516   -2.0694    0.0000 C   0  0  0  0  0  0  0  0  0  0  0  0
   -5.1647   -1.5174    0.0000 N   0  0  0  0  0  0  0  0  0  0  0  0
   -4.9932   -0.7104    0.0000 C   0  0  0  0  0  0  0  0  0  0  0  0
   -4.2086   -0.4555    0.0000 C   0  0  0  0  0  0  0  0  0  0  0  0
   -2.5559    0.0320    0.0000 N   0  0  0  0  0  0  0  0  0  0  0  0
   -1.7309    0.0320    0.0000 C   0  0  0  0  0  0  0  0  0  0  0  0
   -1.1789    0.6451    0.0000 C   0  0  0  0  0  0  0  0  0  0  0  0
   -0.3719    0.4736    0.0000 C   0  0  0  0  0  0  0  0  0  0  0  0
    0.1801    1.0867    0.0000 C   0  0  0  0  0  0  0  0  0  0  0  0
   -0.1170   -0.3110    0.0000 C   0  0  0  0  0  0  0  0  0  0  0  0
   -0.6690   -0.9241    0.0000 C   0  0  0  0  0  0  0  0  0  0  0  0
   -1.4760   -0.7526    0.0000 N   0  0  0  0  0  0  0  0  0  0  0  0
   -1.4289   -2.4750    0.0000 C   0  0  0  0  0  0  0  0  0  0  0  0
   -0.7145   -2.0625    0.0000 C   0  0  0  0  0  0  0  0  0  0  0  0
    0.0000   -1.6500    0.0000 C   0  0  0  0  0  0  0  0  0  0  0  0
    0.7145   -1.2375    0.0000 C   0  0  0  0  0  0  0  0  0  0  0  0
    0.7145   -0.4125    0.0000 C   0  0  0  0  0  0  0  0  0  0  0  0
    1.4289    0.0000    0.0000 C   0  0  0  0  0  0  0  0  0  0  0  0
    2.1434   -0.4125    0.0000 C   0  0  0  0  0  0  0  0  0  0  0  0
    2.8579    0.0000    0.0000 N   0  0  0  0  0  0  0  0  0  0  0  0
    3.5724   -0.4125    0.0000 C   0  0  0  0  0  0  0  0  0  0  0  0
    4.2868   -0.0000    0.0000 C   0  0  0  0  0  0  0  0  0  0  0  0
    3.5724   -1.2375    0.0000 C   0  0  0  0  0  0  0  0  0  0  0  0
    2.8579   -1.6500    0.0000 C   0  0  0  0  0  0  0  0  0  0  0  0
    2.1434   -1.2375    0.0000 C   0  0  0  0  0  0  0  0  0  0  0  0
    1.4289   -1.6500    0.0000 C   0  0  0  0  0  0  0  0  0  0  0  0
   -1.4289   -3.3000    0.0000 N   0  0  0  0  0  0  0  0  0  0  0  0
  1  2  1  0  0  0  0
  2  3  1  0  0  0  0
  3  4  1  0  0  0  0
  3  5  1  0  0  0  0
  5  6  2  0  0  0  0
  5  7  1  0  0  0  0
  7  8  1  0  0  0  0
  8  9  4  0  0  0  0
  9 10  4  0  0  0  0
 10 11  4  0  0  0  0
 11 12  1  0  0  0  0
 12 13  4  0  0  0  0
 13 14  1  0  0  0  0
 14 15  4  0  0  0  0
 15 16  4  0  0  0  0
 16 17  4  0  0  0  0
 17 18  4  0  0  0  0
 18 19  4  0  0  0  0
 14 19  4  0  0  0  0
 13 20  4  0  0  0  0
 20 21  4  0  0  0  0
 21 22  4  0  0  0  0
 22 23  4  0  0  0  0
 23 24  1  0  0  0  0
 23 25  4  0  0  0  0
 25 26  4  0  0  0  0
 26 27  4  0  0  0  0
 12 27  4  0  0  0  0
 21 27  4  0  0  0  0
 11 28  4  0  0  0  0
 28 29  1  0  0  0  0
 29 30  3  0  0  0  0
 30 31  1  0  0  0  0
 31 32  4  0  0  0  0
 32 33  4  0  0  0  0
 33 34  4  0  0  0  0
 34 35  4  0  0  0  0
 35 36  4  0  0  0  0
 36 37  1  0  0  0  0
 36 38  4  0  0  0  0
 38 39  4  0  0  0  0
 39 40  4  0  0  0  0
 34 40  4  0  0  0  0
 40 41  4  0  0  0  0
 31 41  4  0  0  0  0
 28 42  4  0  0  0  0
  8 42  4  0  0  0  0
M  END
>  <CdId>
664

>  <Mol Weight>
551.654

>  <Formula>
C34H29N7O

>  <Molecule ChEMBL ID>
CHEMBL3910478

>  <Molecule Max Phase>
None

>  <Molecular Weight>
551.65

>  <#RO5 Violations>
2

>  <AlogP>
5.57

>  <Compound Key>
BDBM253986

>  <Standard Type>
IC50

>  <Standard Relation>
'='

>  <Standard Value>
500.0

>  <Standard Units>
nM

$$$$

  Mrv2114 03112311372D          

 43 48  0  0  1  0            999 V2000
   -0.7145   -7.0125    0.0000 C   0  0  0  0  0  0  0  0  0  0  0  0
   -0.7145   -6.1875    0.0000 N   0  0  0  0  0  0  0  0  0  0  0  0
   -1.4289   -5.7750    0.0000 C   0  0  1  0  0  0  0  0  0  0  0  0
   -2.1434   -6.1875    0.0000 C   0  0  0  0  0  0  0  0  0  0  0  0
   -1.4289   -4.9500    0.0000 C   0  0  0  0  0  0  0  0  0  0  0  0
   -0.7145   -4.5375    0.0000 O   0  0  0  0  0  0  0  0  0  0  0  0
   -2.1434   -4.5375    0.0000 N   0  0  0  0  0  0  0  0  0  0  0  0
   -2.1434   -3.7125    0.0000 C   0  0  0  0  0  0  0  0  0  0  0  0
   -2.8579   -3.3000    0.0000 C   0  0  0  0  0  0  0  0  0  0  0  0
   -2.8579   -2.4750    0.0000 C   0  0  0  0  0  0  0  0  0  0  0  0
   -2.1434   -2.0625    0.0000 C   0  0  0  0  0  0  0  0  0  0  0  0
   -2.1434   -1.2375    0.0000 C   0  0  0  0  0  0  0  0  0  0  0  0
   -2.8109   -0.7526    0.0000 C   0  0  0  0  0  0  0  0  0  0  0  0
   -3.5955   -1.0075    0.0000 C   0  0  0  0  0  0  0  0  0  0  0  0
   -3.7670   -1.8145    0.0000 C   0  0  0  0  0  0  0  0  0  0  0  0
   -4.5516   -2.0694    0.0000 N   0  0  0  0  0  0  0  0  0  0  0  0
   -5.1647   -1.5174    0.0000 C   0  0  0  0  0  0  0  0  0  0  0  0
   -5.9493   -1.7723    0.0000 C   0  0  0  0  0  0  0  0  0  0  0  0
   -4.9932   -0.7104    0.0000 N   0  0  0  0  0  0  0  0  0  0  0  0
   -4.2086   -0.4555    0.0000 C   0  0  0  0  0  0  0  0  0  0  0  0
   -2.5559    0.0320    0.0000 N   0  0  0  0  0  0  0  0  0  0  0  0
   -1.7309    0.0320    0.0000 C   0  0  0  0  0  0  0  0  0  0  0  0
   -1.1789    0.6451    0.0000 C   0  0  0  0  0  0  0  0  0  0  0  0
   -0.3719    0.4736    0.0000 C   0  0  0  0  0  0  0  0  0  0  0  0
    0.1801    1.0867    0.0000 C   0  0  0  0  0  0  0  0  0  0  0  0
   -0.1170   -0.3110    0.0000 C   0  0  0  0  0  0  0  0  0  0  0  0
   -0.6690   -0.9241    0.0000 C   0  0  0  0  0  0  0  0  0  0  0  0
   -1.4760   -0.7526    0.0000 N   0  0  0  0  0  0  0  0  0  0  0  0
   -1.4289   -2.4750    0.0000 C   0  0  0  0  0  0  0  0  0  0  0  0
   -0.7145   -2.0625    0.0000 C   0  0  0  0  0  0  0  0  0  0  0  0
    0.0000   -1.6500    0.0000 C   0  0  0  0  0  0  0  0  0  0  0  0
    0.7145   -1.2375    0.0000 C   0  0  0  0  0  0  0  0  0  0  0  0
    0.7145   -0.4125    0.0000 C   0  0  0  0  0  0  0  0  0  0  0  0
    1.4289    0.0000    0.0000 C   0  0  0  0  0  0  0  0  0  0  0  0
    2.1434   -0.4125    0.0000 C   0  0  0  0  0  0  0  0  0  0  0  0
    2.8579    0.0000    0.0000 C   0  0  0  0  0  0  0  0  0  0  0  0
    2.8579    0.8250    0.0000 C   0  0  0  0  0  0  0  0  0  0  0  0
    3.5724   -0.4125    0.0000 N   0  0  0  0  0  0  0  0  0  0  0  0
    3.5724   -1.2375    0.0000 C   0  0  0  0  0  0  0  0  0  0  0  0
    2.8579   -1.6500    0.0000 C   0  0  0  0  0  0  0  0  0  0  0  0
    2.1434   -1.2375    0.0000 C   0  0  0  0  0  0  0  0  0  0  0  0
    1.4289   -1.6500    0.0000 C   0  0  0  0  0  0  0  0  0  0  0  0
   -1.4289   -3.3000    0.0000 N   0  0  0  0  0  0  0  0  0  0  0  0
  1  2  1  0  0  0  0
  3  2  1  0  0  0  0
  3  4  1  1  0  0  0
  3  5  1  0  0  0  0
  5  6  2  0  0  0  0
  5  7  1  0  0  0  0
  7  8  1  0  0  0  0
  8  9  4  0  0  0  0
  9 10  4  0  0  0  0
 10 11  4  0  0  0  0
 11 12  1  0  0  0  0
 12 13  4  0  0  0  0
 13 14  1  0  0  0  0
 14 15  4  0  0  0  0
 15 16  4  0  0  0  0
 16 17  4  0  0  0  0
 17 18  1  0  0  0  0
 17 19  4  0  0  0  0
 19 20  4  0  0  0  0
 14 20  4  0  0  0  0
 13 21  4  0  0  0  0
 21 22  4  0  0  0  0
 22 23  4  0  0  0  0
 23 24  4  0  0  0  0
 24 25  1  0  0  0  0
 24 26  4  0  0  0  0
 26 27  4  0  0  0  0
 27 28  4  0  0  0  0
 12 28  4  0  0  0  0
 22 28  4  0  0  0  0
 11 29  4  0  0  0  0
 29 30  1  0  0  0  0
 30 31  3  0  0  0  0
 31 32  1  0  0  0  0
 32 33  4  0  0  0  0
 33 34  4  0  0  0  0
 34 35  4  0  0  0  0
 35 36  4  0  0  0  0
 36 37  1  0  0  0  0
 36 38  4  0  0  0  0
 38 39  4  0  0  0  0
 39 40  4  0  0  0  0
 40 41  4  0  0  0  0
 35 41  4  0  0  0  0
 41 42  4  0  0  0  0
 32 42  4  0  0  0  0
 29 43  4  0  0  0  0
  8 43  4  0  0  0  0
M  END
>  <CdId>
665

>  <Mol Weight>
566.669

>  <Formula>
C34H30N8O

>  <Molecule ChEMBL ID>
CHEMBL3967713

>  <Molecule Max Phase>
None

>  <Molecular Weight>
566.67

>  <#RO5 Violations>
2

>  <AlogP>
5.27

>  <Compound Key>
BDBM253997

>  <Standard Type>
IC50

>  <Standard Relation>
'>'

>  <Standard Value>
50000.0

>  <Standard Units>
nM

$$$$

  Mrv2114 03112311372D          

 29 31  0  0  0  0            999 V2000
    0.0000   -1.6500    0.0000 C   0  0  0  0  0  0  0  0  0  0  0  0
    0.0000   -2.4750    0.0000 C   0  0  0  0  0  0  0  0  0  0  0  0
    0.7145   -2.8875    0.0000 C   0  0  0  0  0  0  0  0  0  0  0  0
    0.7145   -3.7125    0.0000 C   0  0  0  0  0  0  0  0  0  0  0  0
    0.0000   -4.1250    0.0000 C   0  0  0  0  0  0  0  0  0  0  0  0
    0.0000   -4.9500    0.0000 C   0  0  0  0  0  0  0  0  0  0  0  0
    0.7145   -5.3625    0.0000 C   0  0  0  0  0  0  0  0  0  0  0  0
    0.7145   -6.1875    0.0000 C   0  0  0  0  0  0  0  0  0  0  0  0
   -0.0000   -6.6000    0.0000 C   0  0  0  0  0  0  0  0  0  0  0  0
   -0.7145   -6.1875    0.0000 C   0  0  0  0  0  0  0  0  0  0  0  0
   -1.4289   -6.6000    0.0000 C   0  0  0  0  0  0  0  0  0  0  0  0
   -1.4289   -7.4250    0.0000 O   0  0  0  0  0  0  0  0  0  0  0  0
   -0.7145   -5.3625    0.0000 C   0  0  0  0  0  0  0  0  0  0  0  0
   -0.7145   -3.7125    0.0000 N   0  0  0  0  0  0  0  0  0  0  0  0
   -0.7145   -2.8875    0.0000 C   0  0  0  0  0  0  0  0  0  0  0  0
   -1.4289   -2.4750    0.0000 C   0  0  0  0  0  0  0  0  0  0  0  0
   -2.1434   -2.8875    0.0000 O   0  0  0  0  0  0  0  0  0  0  0  0
   -1.4289   -1.6500    0.0000 N   0  0  0  0  0  0  0  0  0  0  0  0
   -2.1434   -1.2375    0.0000 C   0  0  0  0  0  0  0  0  0  0  0  0
   -2.8579   -1.6500    0.0000 C   0  0  0  0  0  0  0  0  0  0  0  0
   -2.8579   -2.4750    0.0000 C   0  0  0  0  0  0  0  0  0  0  0  0
   -3.5724   -1.2375    0.0000 C   0  0  0  0  0  0  0  0  0  0  0  0
   -3.5724   -0.4125    0.0000 C   0  0  0  0  0  0  0  0  0  0  0  0
   -2.8579    0.0000    0.0000 C   0  0  0  0  0  0  0  0  0  0  0  0
   -2.8579    0.8250    0.0000 C   0  0  0  0  0  0  0  0  0  0  0  0
   -3.5724    1.2375    0.0000 O   0  0  0  0  0  0  0  0  0  0  0  0
   -2.1434    1.2375    0.0000 O   0  0  0  0  0  0  0  0  0  0  0  0
   -2.1434   -0.4125    0.0000 C   0  0  0  0  0  0  0  0  0  0  0  0
   -1.4289    0.0000    0.0000 C   0  0  0  0  0  0  0  0  0  0  0  0
  1  2  1  0  0  0  0
  2  3  4  0  0  0  0
  3  4  4  0  0  0  0
  4  5  4  0  0  0  0
  5  6  1  0  0  0  0
  6  7  4  0  0  0  0
  7  8  4  0  0  0  0
  8  9  4  0  0  0  0
  9 10  4  0  0  0  0
 10 11  1  0  0  0  0
 11 12  1  0  0  0  0
 10 13  4  0  0  0  0
  6 13  4  0  0  0  0
  5 14  4  0  0  0  0
 14 15  4  0  0  0  0
  2 15  4  0  0  0  0
 15 16  1  0  0  0  0
 16 17  2  0  0  0  0
 16 18  1  0  0  0  0
 18 19  1  0  0  0  0
 19 20  4  0  0  0  0
 20 21  1  0  0  0  0
 20 22  4  0  0  0  0
 22 23  4  0  0  0  0
 23 24  4  0  0  0  0
 24 25  1  0  0  0  0
 25 26  2  0  0  0  0
 25 27  1  0  0  0  0
 24 28  4  0  0  0  0
 19 28  4  0  0  0  0
 28 29  1  0  0  0  0
M  END
>  <CdId>
666

>  <Mol Weight>
390.439

>  <Formula>
C23H22N2O4

>  <Molecule ChEMBL ID>
CHEMBL3754085

>  <Molecule Max Phase>
None

>  <Molecular Weight>
390.44

>  <#RO5 Violations>
0

>  <AlogP>
4.12

>  <Compound Key>
7a

>  <Standard Type>
IC50

>  <Standard Relation>
'>'

>  <Standard Value>
10000.0

>  <Standard Units>
nM

$$$$

  Mrv2114 03112311372D          

 26 28  0  0  0  0            999 V2000
    4.1801   -1.7116    0.0000 O   0  0  0  0  0  0  0  0  0  0  0  0
    4.8946   -1.2991    0.0000 C   0  0  0  0  0  0  0  0  0  0  0  0
    5.6091   -1.7116    0.0000 C   0  0  0  0  0  0  0  0  0  0  0  0
    5.6091   -2.5366    0.0000 N   0  0  0  0  0  0  0  0  0  0  0  0
    6.2765   -3.0215    0.0000 C   0  0  0  0  0  0  0  0  0  0  0  0
    6.0216   -3.8062    0.0000 N   0  0  0  0  0  0  0  0  0  0  0  0
    5.1966   -3.8062    0.0000 C   0  0  0  0  0  0  0  0  0  0  0  0
    4.7116   -4.4736    0.0000 N   0  3  0  0  0  0  0  0  0  0  0  0
    5.0472   -5.2273    0.0000 O   0  0  0  0  0  0  0  0  0  0  0  0
    3.8912   -4.3874    0.0000 O   0  5  0  0  0  0  0  0  0  0  0  0
    4.9416   -3.0215    0.0000 N   0  0  0  0  0  0  0  0  0  0  0  0
    4.8946   -0.4741    0.0000 N   0  0  0  0  0  0  0  0  0  0  0  0
    4.1801   -0.0616    0.0000 C   0  0  0  0  0  0  0  0  0  0  0  0
    4.1801    0.7634    0.0000 C   0  0  0  0  0  0  0  0  0  0  0  0
    4.8946    1.1759    0.0000 N   0  0  0  0  0  0  0  0  0  0  0  0
    4.8946    2.0009    0.0000 C   0  0  0  0  0  0  0  0  0  0  0  0
    5.6091    2.4134    0.0000 C   0  0  0  0  0  0  0  0  0  0  0  0
    5.6091    3.2384    0.0000 C   0  0  0  0  0  0  0  0  0  0  0  0
    6.3235    3.6509    0.0000 C   0  0  0  0  0  0  0  0  0  0  0  0
    7.0380    3.2384    0.0000 C   0  0  0  0  0  0  0  0  0  0  0  0
    7.7525    3.6509    0.0000 Cl  0  0  0  0  0  0  0  0  0  0  0  0
    7.0380    2.4134    0.0000 C   0  0  0  0  0  0  0  0  0  0  0  0
    7.7525    2.0009    0.0000 Cl  0  0  0  0  0  0  0  0  0  0  0  0
    6.3235    2.0009    0.0000 C   0  0  0  0  0  0  0  0  0  0  0  0
    5.6091    0.7634    0.0000 C   0  0  0  0  0  0  0  0  0  0  0  0
    5.6091   -0.0616    0.0000 C   0  0  0  0  0  0  0  0  0  0  0  0
  1  2  2  0  0  0  0
  2  3  1  0  0  0  0
  3  4  1  0  0  0  0
  4  5  4  0  0  0  0
  5  6  4  0  0  0  0
  6  7  4  0  0  0  0
  7  8  1  0  0  0  0
  8  9  2  0  0  0  0
  8 10  1  0  0  0  0
  7 11  4  0  0  0  0
  4 11  4  0  0  0  0
  2 12  1  0  0  0  0
 12 13  1  0  0  0  0
 13 14  1  0  0  0  0
 14 15  1  0  0  0  0
 15 16  1  0  0  0  0
 16 17  1  0  0  0  0
 17 18  4  0  0  0  0
 18 19  4  0  0  0  0
 19 20  4  0  0  0  0
 20 21  1  0  0  0  0
 20 22  4  0  0  0  0
 22 23  1  0  0  0  0
 22 24  4  0  0  0  0
 17 24  4  0  0  0  0
 15 25  1  0  0  0  0
 25 26  1  0  0  0  0
 12 26  1  0  0  0  0
M  CHG  2   8   1  10  -1
M  END
>  <CdId>
667

>  <Mol Weight>
399.23

>  <Formula>
C15H16Cl2N6O3

>  <Molecule ChEMBL ID>
CHEMBL3633321

>  <Molecule Max Phase>
None

>  <Molecular Weight>
399.24

>  <#RO5 Violations>
0

>  <AlogP>
1.84

>  <Compound Key>
12

>  <Standard Type>
IC50

>  <Standard Relation>
'>'

>  <Standard Value>
20000.0

>  <Standard Units>
nM

$$$$

  Mrv2114 03112311372D          

 34 38  0  0  0  0            999 V2000
    0.0000    0.0000    0.0000 Cl  0  0  0  0  0  0  0  0  0  0  0  0
    3.5357    2.6492    0.0000 N   0  0  0  0  0  0  0  0  0  0  0  0
    3.1232    1.9348    0.0000 C   0  0  0  0  0  0  0  0  0  0  0  0
    2.2982    1.9348    0.0000 N   0  0  0  0  0  0  0  0  0  0  0  0
    1.8857    1.2203    0.0000 C   0  0  0  0  0  0  0  0  0  0  0  0
    2.2982    0.5058    0.0000 C   0  0  0  0  0  0  0  0  0  0  0  0
    3.1232    0.5058    0.0000 C   0  0  0  0  0  0  0  0  0  0  0  0
    3.5357    1.2203    0.0000 C   0  0  0  0  0  0  0  0  0  0  0  0
    4.3607    1.2203    0.0000 C   0  0  0  0  0  0  0  0  0  0  0  0
    4.8456    1.8877    0.0000 N   0  0  0  0  0  0  0  0  0  0  0  0
    5.6303    1.6328    0.0000 C   0  0  0  0  0  0  0  0  0  0  0  0
    6.3447    2.0453    0.0000 C   0  0  0  0  0  0  0  0  0  0  0  0
    7.0592    1.6328    0.0000 C   0  0  0  0  0  0  0  0  0  0  0  0
    7.0592    0.8078    0.0000 C   0  0  0  0  0  0  0  0  0  0  0  0
    7.7737    0.3953    0.0000 C   0  0  0  0  0  0  0  0  0  0  0  0
    8.4881    0.8078    0.0000 C   0  0  0  0  0  0  0  0  0  0  0  0
    9.2026    0.3953    0.0000 C   0  0  0  0  0  0  0  0  0  0  0  0
    9.2026   -0.4297    0.0000 C   0  0  0  0  0  0  0  0  0  0  0  0
    8.4881   -0.8422    0.0000 C   0  0  0  0  0  0  0  0  0  0  0  0
    7.7737   -0.4297    0.0000 C   0  0  0  0  0  0  0  0  0  0  0  0
    6.3447    0.3953    0.0000 N   0  0  0  0  0  0  0  0  0  0  0  0
    5.6303    0.8078    0.0000 C   0  0  0  0  0  0  0  0  0  0  0  0
    4.8456    0.5529    0.0000 N   0  0  0  0  0  0  0  0  0  0  0  0
    4.5907   -0.2318    0.0000 C   0  0  0  0  0  0  0  0  0  0  0  0
    5.1427   -0.8449    0.0000 C   0  0  0  0  0  0  0  0  0  0  0  0
    4.8878   -1.6295    0.0000 C   0  0  0  0  0  0  0  0  0  0  0  0
    4.0808   -1.8010    0.0000 C   0  0  0  0  0  0  0  0  0  0  0  0
    3.8259   -2.5856    0.0000 C   0  0  0  0  0  0  0  0  0  0  0  0
    3.0413   -2.3307    0.0000 N   0  0  0  0  0  0  0  0  0  0  0  0
    4.6105   -2.8406    0.0000 C   0  0  0  0  0  0  0  0  0  0  0  0
    4.3556   -3.6252    0.0000 C   0  0  0  0  0  0  0  0  0  0  0  0
    3.5709   -3.3702    0.0000 C   0  0  0  0  0  0  0  0  0  0  0  0
    3.5288   -1.1879    0.0000 C   0  0  0  0  0  0  0  0  0  0  0  0
    3.7837   -0.4033    0.0000 C   0  0  0  0  0  0  0  0  0  0  0  0
  2  3  1  0  0  0  0
  3  4  4  0  0  0  0
  4  5  4  0  0  0  0
  5  6  4  0  0  0  0
  6  7  4  0  0  0  0
  7  8  4  0  0  0  0
  3  8  4  0  0  0  0
  8  9  1  0  0  0  0
  9 10  4  0  0  0  0
 10 11  4  0  0  0  0
 11 12  4  0  0  0  0
 12 13  4  0  0  0  0
 13 14  4  0  0  0  0
 14 15  1  0  0  0  0
 15 16  4  0  0  0  0
 16 17  4  0  0  0  0
 17 18  4  0  0  0  0
 18 19  4  0  0  0  0
 19 20  4  0  0  0  0
 15 20  4  0  0  0  0
 14 21  4  0  0  0  0
 21 22  4  0  0  0  0
 11 22  4  0  0  0  0
 22 23  4  0  0  0  0
  9 23  4  0  0  0  0
 23 24  1  0  0  0  0
 24 25  4  0  0  0  0
 25 26  4  0  0  0  0
 26 27  4  0  0  0  0
 27 28  1  0  0  0  0
 28 29  1  0  0  0  0
 28 30  1  0  0  0  0
 30 31  1  0  0  0  0
 31 32  1  0  0  0  0
 28 32  1  0  0  0  0
 27 33  4  0  0  0  0
 33 34  4  0  0  0  0
 24 34  4  0  0  0  0
M  END
>  <CdId>
668

>  <Mol Weight>
468.99

>  <Formula>
C27H25ClN6

>  <Molecule ChEMBL ID>
CHEMBL4523032

>  <Molecule Max Phase>
None

>  <Molecular Weight>
468.99

>  <#RO5 Violations>
1

>  <AlogP>
5.07

>  <Compound Key>
21a

>  <Standard Type>
IC50

>  <Standard Relation>
'='

>  <Standard Value>
20000.0

>  <Standard Units>
nM

$$$$

  Mrv2114 03112311372D          

 34 38  0  0  0  0            999 V2000
   -0.1712   -0.6979    0.0000 O   0  0  0  0  0  0  0  0  0  0  0  0
    0.6538   -0.6979    0.0000 C   0  0  0  0  0  0  0  0  0  0  0  0
    1.1387   -0.0305    0.0000 N   0  0  0  0  0  0  0  0  0  0  0  0
    1.9233   -0.2854    0.0000 C   0  0  0  0  0  0  0  0  0  0  0  0
    2.6378    0.1271    0.0000 C   0  0  0  0  0  0  0  0  0  0  0  0
    3.3523   -0.2854    0.0000 C   0  0  0  0  0  0  0  0  0  0  0  0
    3.3523   -1.1104    0.0000 C   0  0  0  0  0  0  0  0  0  0  0  0
    2.6378   -1.5229    0.0000 C   0  0  0  0  0  0  0  0  0  0  0  0
    1.9233   -1.1104    0.0000 C   0  0  0  0  0  0  0  0  0  0  0  0
    1.1387   -1.3654    0.0000 N   0  0  0  0  0  0  0  0  0  0  0  0
    0.8838   -2.1500    0.0000 C   0  0  0  0  0  0  0  0  0  0  0  0
    1.4358   -2.7631    0.0000 C   0  0  0  0  0  0  0  0  0  0  0  0
    1.1809   -3.5477    0.0000 C   0  0  0  0  0  0  0  0  0  0  0  0
    0.3739   -3.7192    0.0000 N   0  0  0  0  0  0  0  0  0  0  0  0
    0.1190   -4.5039    0.0000 C   0  0  0  0  0  0  0  0  0  0  0  0
    0.6710   -5.1170    0.0000 C   0  0  0  0  0  0  0  0  0  0  0  0
    0.4161   -5.9016    0.0000 C   0  0  0  0  0  0  0  0  0  0  0  0
    0.9681   -6.5147    0.0000 C   0  0  0  0  0  0  0  0  0  0  0  0
    0.7132   -7.2993    0.0000 C   0  0  0  0  0  0  0  0  0  0  0  0
    1.2652   -7.9124    0.0000 C   0  0  0  0  0  0  0  0  0  0  0  0
    1.0102   -8.6970    0.0000 C   0  0  0  0  0  0  0  0  0  0  0  0
    0.2033   -8.8685    0.0000 C   0  0  0  0  0  0  0  0  0  0  0  0
   -0.0517   -9.6532    0.0000 F   0  0  0  0  0  0  0  0  0  0  0  0
   -0.3488   -8.2554    0.0000 C   0  0  0  0  0  0  0  0  0  0  0  0
   -0.0938   -7.4708    0.0000 C   0  0  0  0  0  0  0  0  0  0  0  0
    1.7751   -6.3432    0.0000 C   0  0  0  0  0  0  0  0  0  0  0  0
    2.0300   -5.5585    0.0000 C   0  0  0  0  0  0  0  0  0  0  0  0
    2.8370   -5.3870    0.0000 C   0  0  0  0  0  0  0  0  0  0  0  0
    3.3890   -6.0001    0.0000 C   0  0  0  0  0  0  0  0  0  0  0  0
    4.1960   -5.8286    0.0000 F   0  0  0  0  0  0  0  0  0  0  0  0
    3.1341   -6.7847    0.0000 C   0  0  0  0  0  0  0  0  0  0  0  0
    2.3271   -6.9562    0.0000 C   0  0  0  0  0  0  0  0  0  0  0  0
   -0.1781   -3.1062    0.0000 C   0  0  0  0  0  0  0  0  0  0  0  0
    0.0768   -2.3215    0.0000 C   0  0  0  0  0  0  0  0  0  0  0  0
  1  2  2  0  0  0  0
  2  3  4  0  0  0  0
  3  4  4  0  0  0  0
  4  5  4  0  0  0  0
  5  6  4  0  0  0  0
  6  7  4  0  0  0  0
  7  8  4  0  0  0  0
  8  9  4  0  0  0  0
  4  9  4  0  0  0  0
  9 10  4  0  0  0  0
  2 10  4  0  0  0  0
 10 11  1  0  0  0  0
 11 12  1  0  0  0  0
 12 13  1  0  0  0  0
 13 14  1  0  0  0  0
 14 15  1  0  0  0  0
 15 16  1  0  0  0  0
 16 17  1  0  0  0  0
 17 18  1  0  0  0  0
 18 19  1  0  0  0  0
 19 20  4  0  0  0  0
 20 21  4  0  0  0  0
 21 22  4  0  0  0  0
 22 23  1  0  0  0  0
 22 24  4  0  0  0  0
 24 25  4  0  0  0  0
 19 25  4  0  0  0  0
 18 26  1  0  0  0  0
 26 27  4  0  0  0  0
 27 28  4  0  0  0  0
 28 29  4  0  0  0  0
 29 30  1  0  0  0  0
 29 31  4  0  0  0  0
 31 32  4  0  0  0  0
 26 32  4  0  0  0  0
 14 33  1  0  0  0  0
 33 34  1  0  0  0  0
 11 34  1  0  0  0  0
M  STY  1   1 DAT
M  SAL   1  1   3
M  SDT   1 MRV_IMPLICIT_H                                        
M  SDD   1     0.0000    0.0000    DR    ALL  0       0  
M  SED   1 IMPL_H1
M  END
>  <CdId>
669

>  <Mol Weight>
461.557

>  <Formula>
C28H29F2N3O

>  <Molecule ChEMBL ID>
CHEMBL1423

>  <Molecule Name>
PIMOZIDE

>  <Molecule Max Phase>
4

>  <Molecular Weight>
461.56

>  <#RO5 Violations>
1

>  <AlogP>
5.86

>  <Compound Key>
Pimozide

>  <Standard Type>
IC50

>  <Standard Relation>
'>'

>  <Standard Value>
30000.0

>  <Standard Units>
nM

$$$$

  Mrv2114 03112311372D          

 22 21  0  0  0  0            999 V2000
    0.0000    0.0000    0.0000 Cl  0  0  0  0  0  0  0  0  0  0  0  0
    2.0036    0.0000    0.0000 Cl  0  0  0  0  0  0  0  0  0  0  0  0
    0.0000   -3.8945    0.0000 Cl  0  0  0  0  0  0  0  0  0  0  0  0
    5.8097   -1.6500    0.0000 N   0  0  0  0  0  0  0  0  0  0  0  0
    5.0952   -2.0625    0.0000 C   0  0  0  0  0  0  0  0  0  0  0  0
    5.0952   -2.8875    0.0000 C   0  0  0  0  0  0  0  0  0  0  0  0
    5.7627   -3.3724    0.0000 C   0  0  0  0  0  0  0  0  0  0  0  0
    5.5077   -4.1570    0.0000 C   0  0  0  0  0  0  0  0  0  0  0  0
    4.6827   -4.1570    0.0000 C   0  0  0  0  0  0  0  0  0  0  0  0
    4.1978   -4.8245    0.0000 C   0  0  0  0  0  0  0  0  0  0  0  0
    4.5333   -5.5782    0.0000 C   0  0  0  0  0  0  0  0  0  0  0  0
    4.0484   -6.2456    0.0000 N   0  0  0  0  0  0  0  0  0  0  0  0
    3.2279   -6.1594    0.0000 C   0  0  0  0  0  0  0  0  0  0  0  0
    2.8924   -5.4057    0.0000 C   0  0  0  0  0  0  0  0  0  0  0  0
    3.3773   -4.7382    0.0000 C   0  0  0  0  0  0  0  0  0  0  0  0
    3.0418   -3.9846    0.0000 C   0  0  0  0  0  0  0  0  0  0  0  0
    2.2213   -3.8983    0.0000 C   0  0  0  0  0  0  0  0  0  0  0  0
    1.8857   -3.1447    0.0000 C   0  0  0  0  0  0  0  0  0  0  0  0
    2.3706   -2.4772    0.0000 N   0  0  0  0  0  0  0  0  0  0  0  0
    3.1911   -2.5635    0.0000 C   0  0  0  0  0  0  0  0  0  0  0  0
    3.5267   -3.3171    0.0000 C   0  0  0  0  0  0  0  0  0  0  0  0
    4.4278   -3.3724    0.0000 O   0  0  0  0  0  0  0  0  0  0  0  0
  4  5  1  0  0  0  0
  5  6  1  0  0  0  0
  6  7  4  0  0  0  0
  7  8  4  0  0  0  0
  8  9  4  0  0  0  0
  9 10  1  0  0  0  0
 10 11  4  0  0  0  0
 11 12  4  0  0  0  0
 12 13  4  0  0  0  0
 13 14  4  0  0  0  0
 14 15  4  0  0  0  0
 10 15  4  0  0  0  0
 15 16  1  0  0  0  0
 16 17  4  0  0  0  0
 17 18  4  0  0  0  0
 18 19  4  0  0  0  0
 19 20  4  0  0  0  0
 20 21  4  0  0  0  0
 16 21  4  0  0  0  0
  9 22  4  0  0  0  0
  6 22  4  0  0  0  0
M  END
>  <CdId>
670

>  <Mol Weight>
360.66

>  <Formula>
C15H16Cl3N3O

>  <Molecule ChEMBL ID>
CHEMBL4176506

>  <Molecule Max Phase>
None

>  <Molecular Weight>
360.67

>  <#RO5 Violations>
0

>  <AlogP>
2.86

>  <Compound Key>
5o

>  <Standard Type>
IC50

>  <Standard Relation>
'>'

>  <Standard Value>
25000.0

>  <Standard Units>
nM

$$$$

  Mrv2114 03112311372D          

 22 21  0  0  0  0            999 V2000
    0.0000    0.0000    0.0000 Cl  0  0  0  0  0  0  0  0  0  0  0  0
    2.0036    0.0000    0.0000 Cl  0  0  0  0  0  0  0  0  0  0  0  0
    0.0000   -3.8945    0.0000 Cl  0  0  0  0  0  0  0  0  0  0  0  0
    5.8097   -1.6500    0.0000 N   0  0  0  0  0  0  0  0  0  0  0  0
    5.0952   -2.0625    0.0000 C   0  0  0  0  0  0  0  0  0  0  0  0
    5.0952   -2.8875    0.0000 C   0  0  0  0  0  0  0  0  0  0  0  0
    5.7627   -3.3724    0.0000 C   0  0  0  0  0  0  0  0  0  0  0  0
    5.5077   -4.1570    0.0000 C   0  0  0  0  0  0  0  0  0  0  0  0
    4.6827   -4.1570    0.0000 C   0  0  0  0  0  0  0  0  0  0  0  0
    4.1978   -4.8245    0.0000 C   0  0  0  0  0  0  0  0  0  0  0  0
    4.5333   -5.5782    0.0000 C   0  0  0  0  0  0  0  0  0  0  0  0
    4.0484   -6.2456    0.0000 N   0  0  0  0  0  0  0  0  0  0  0  0
    3.2279   -6.1594    0.0000 C   0  0  0  0  0  0  0  0  0  0  0  0
    2.8924   -5.4057    0.0000 C   0  0  0  0  0  0  0  0  0  0  0  0
    3.3773   -4.7382    0.0000 C   0  0  0  0  0  0  0  0  0  0  0  0
    3.0418   -3.9846    0.0000 C   0  0  0  0  0  0  0  0  0  0  0  0
    2.2213   -3.8983    0.0000 C   0  0  0  0  0  0  0  0  0  0  0  0
    1.8857   -3.1447    0.0000 C   0  0  0  0  0  0  0  0  0  0  0  0
    2.3706   -2.4772    0.0000 C   0  0  0  0  0  0  0  0  0  0  0  0
    3.1911   -2.5635    0.0000 N   0  0  0  0  0  0  0  0  0  0  0  0
    3.5267   -3.3171    0.0000 C   0  0  0  0  0  0  0  0  0  0  0  0
    4.4278   -3.3724    0.0000 S   0  0  0  0  0  0  0  0  0  0  0  0
  4  5  1  0  0  0  0
  5  6  1  0  0  0  0
  6  7  4  0  0  0  0
  7  8  4  0  0  0  0
  8  9  4  0  0  0  0
  9 10  1  0  0  0  0
 10 11  4  0  0  0  0
 11 12  4  0  0  0  0
 12 13  4  0  0  0  0
 13 14  4  0  0  0  0
 14 15  4  0  0  0  0
 10 15  4  0  0  0  0
 15 16  1  0  0  0  0
 16 17  4  0  0  0  0
 17 18  4  0  0  0  0
 18 19  4  0  0  0  0
 19 20  4  0  0  0  0
 20 21  4  0  0  0  0
 16 21  4  0  0  0  0
  9 22  4  0  0  0  0
  6 22  4  0  0  0  0
M  END
>  <CdId>
671

>  <Mol Weight>
376.72

>  <Formula>
C15H16Cl3N3S

>  <Molecule ChEMBL ID>
CHEMBL4164142

>  <Molecule Max Phase>
None

>  <Molecular Weight>
376.74

>  <#RO5 Violations>
0

>  <AlogP>
3.33

>  <Compound Key>
6p

>  <Standard Type>
IC50

>  <Standard Relation>
'='

>  <Standard Value>
3000.0

>  <Standard Units>
nM

$$$$

  Mrv2114 03112311372D          

 13 10  0  0  0  0            999 V2000
    0.0000    0.0000    0.0000 Cl  0  0  0  0  0  0  0  0  0  0  0  0
    2.0036    0.0000    0.0000 Cl  0  0  0  0  0  0  0  0  0  0  0  0
    0.0000   -4.2488    0.0000 Cl  0  0  0  0  0  0  0  0  0  0  0  0
    2.3571   -1.6500    0.0000 N   0  0  0  0  0  0  0  0  0  0  0  0
    3.0716   -2.0625    0.0000 C   0  0  0  0  0  0  0  0  0  0  0  0
    3.0716   -2.8875    0.0000 C   0  0  0  0  0  0  0  0  0  0  0  0
    3.0716   -3.7125    0.0000 C   0  0  0  0  0  0  0  0  0  0  0  0
    3.0716   -4.5375    0.0000 C   0  0  0  0  0  0  0  0  0  0  0  0
    3.7861   -4.9500    0.0000 C   0  0  0  0  0  0  0  0  0  0  0  0
    3.7861   -5.7750    0.0000 N   0  0  0  0  0  0  0  0  0  0  0  0
    3.0716   -6.1875    0.0000 C   0  0  0  0  0  0  0  0  0  0  0  0
    2.3571   -5.7750    0.0000 N   0  0  0  0  0  0  0  0  0  0  0  0
    2.3571   -4.9500    0.0000 C   0  0  0  0  0  0  0  0  0  0  0  0
  4  5  1  0  0  0  0
  5  6  1  0  0  0  0
  6  7  3  0  0  0  0
  7  8  1  0  0  0  0
  8  9  4  0  0  0  0
  9 10  4  0  0  0  0
 10 11  4  0  0  0  0
 11 12  4  0  0  0  0
 12 13  4  0  0  0  0
  8 13  4  0  0  0  0
M  END
>  <CdId>
672

>  <Mol Weight>
242.53

>  <Formula>
C7H10Cl3N3

>  <Molecule ChEMBL ID>
CHEMBL4169290

>  <Molecule Max Phase>
None

>  <Molecular Weight>
242.54

>  <#RO5 Violations>
0

>  <AlogP>
-0.21

>  <Compound Key>
4d

>  <Standard Type>
IC50

$$$$

  Mrv2114 03112311372D          

 31 34  0  0  0  0            999 V2000
    3.5724   -3.7125    0.0000 C   0  0  0  0  0  0  0  0  0  0  0  0
    2.8579   -4.1250    0.0000 C   0  0  0  0  0  0  0  0  0  0  0  0
    2.8579   -4.9500    0.0000 C   0  0  0  0  0  0  0  0  0  0  0  0
    2.1434   -5.3625    0.0000 C   0  0  0  0  0  0  0  0  0  0  0  0
    1.4289   -4.9500    0.0000 C   0  0  0  0  0  0  0  0  0  0  0  0
    0.7145   -5.3625    0.0000 C   0  0  0  0  0  0  0  0  0  0  0  0
    0.7145   -6.1875    0.0000 O   0  0  0  0  0  0  0  0  0  0  0  0
    0.0000   -4.9500    0.0000 O   0  0  0  0  0  0  0  0  0  0  0  0
    1.4289   -4.1250    0.0000 C   0  0  0  0  0  0  0  0  0  0  0  0
    0.7145   -3.7125    0.0000 C   0  0  0  0  0  0  0  0  0  0  0  0
    2.1434   -3.7125    0.0000 C   0  0  0  0  0  0  0  0  0  0  0  0
    2.1434   -2.8875    0.0000 N   0  0  0  0  0  0  0  0  0  0  0  0
    1.4289   -2.4750    0.0000 C   0  0  0  0  0  0  0  0  0  0  0  0
    0.7145   -2.8875    0.0000 O   0  0  0  0  0  0  0  0  0  0  0  0
    1.4289   -1.6500    0.0000 C   0  0  0  0  0  0  0  0  0  0  0  0
    0.7145   -1.2375    0.0000 C   0  0  0  0  0  0  0  0  0  0  0  0
    0.7145   -0.4125    0.0000 C   0  0  0  0  0  0  0  0  0  0  0  0
    0.0000    0.0000    0.0000 C   0  0  0  0  0  0  0  0  0  0  0  0
   -0.7145   -0.4125    0.0000 C   0  0  0  0  0  0  0  0  0  0  0  0
   -1.4289    0.0000    0.0000 C   0  0  0  0  0  0  0  0  0  0  0  0
   -1.4289    0.8250    0.0000 C   0  0  0  0  0  0  0  0  0  0  0  0
   -0.7145    1.2375    0.0000 C   0  0  0  0  0  0  0  0  0  0  0  0
   -0.7145    2.0625    0.0000 Cl  0  0  0  0  0  0  0  0  0  0  0  0
    0.0000    0.8250    0.0000 C   0  0  0  0  0  0  0  0  0  0  0  0
    1.4289    0.0000    0.0000 C   0  0  0  0  0  0  0  0  0  0  0  0
    2.1434   -0.4125    0.0000 C   0  0  0  0  0  0  0  0  0  0  0  0
    2.8579    0.0000    0.0000 C   0  0  0  0  0  0  0  0  0  0  0  0
    3.5724   -0.4125    0.0000 C   0  0  0  0  0  0  0  0  0  0  0  0
    3.5724   -1.2375    0.0000 C   0  0  0  0  0  0  0  0  0  0  0  0
    2.8579   -1.6500    0.0000 C   0  0  0  0  0  0  0  0  0  0  0  0
    2.1434   -1.2375    0.0000 C   0  0  0  0  0  0  0  0  0  0  0  0
  1  2  1  0  0  0  0
  2  3  4  0  0  0  0
  3  4  4  0  0  0  0
  4  5  4  0  0  0  0
  5  6  1  0  0  0  0
  6  7  2  0  0  0  0
  6  8  1  0  0  0  0
  5  9  4  0  0  0  0
  9 10  1  0  0  0  0
  9 11  4  0  0  0  0
  2 11  4  0  0  0  0
 11 12  1  0  0  0  0
 12 13  1  0  0  0  0
 13 14  2  0  0  0  0
 13 15  1  0  0  0  0
 15 16  4  0  0  0  0
 16 17  4  0  0  0  0
 17 18  1  0  0  0  0
 18 19  4  0  0  0  0
 19 20  4  0  0  0  0
 20 21  4  0  0  0  0
 21 22  4  0  0  0  0
 22 23  1  0  0  0  0
 22 24  4  0  0  0  0
 18 24  4  0  0  0  0
 17 25  4  0  0  0  0
 25 26  4  0  0  0  0
 26 27  4  0  0  0  0
 27 28  4  0  0  0  0
 28 29  4  0  0  0  0
 29 30  4  0  0  0  0
 30 31  4  0  0  0  0
 15 31  4  0  0  0  0
 26 31  4  0  0  0  0
M  END
>  <CdId>
673

>  <Mol Weight>
429.9

>  <Formula>
C26H20ClNO3

>  <Molecule ChEMBL ID>
CHEMBL3740325

>  <Molecule Max Phase>
None

>  <Molecular Weight>
429.9

>  <#RO5 Violations>
1

>  <AlogP>
6.73

>  <Compound Key>
7e

>  <Standard Type>
IC50

>  <Standard Relation>
'>'

>  <Standard Value>
10000.0

>  <Standard Units>
nM

$$$$

  Mrv2114 03112311372D          

 26 28  0  0  0  0            999 V2000
    2.8579    0.0000    0.0000 C   0  0  0  0  0  0  0  0  0  0  0  0
    3.5724    0.4125    0.0000 C   0  0  0  0  0  0  0  0  0  0  0  0
    4.2868    0.0000    0.0000 C   0  0  0  0  0  0  0  0  0  0  0  0
    5.0013    0.4125    0.0000 C   0  0  0  0  0  0  0  0  0  0  0  0
    5.7158    0.0000    0.0000 N   0  0  0  0  0  0  0  0  0  0  0  0
    6.4302    0.4125    0.0000 C   0  0  0  0  0  0  0  0  0  0  0  0
    6.4302    1.2375    0.0000 N   0  0  0  0  0  0  0  0  0  0  0  0
    7.1447    1.6500    0.0000 C   0  0  0  0  0  0  0  0  0  0  0  0
    7.1447    2.4750    0.0000 N   0  0  0  0  0  0  0  0  0  0  0  0
    7.8592    1.2375    0.0000 N   0  0  0  0  0  0  0  0  0  0  0  0
    7.8592    0.4125    0.0000 C   0  0  0  0  0  0  0  0  0  0  0  0
    8.5737    0.0000    0.0000 C   0  0  0  0  0  0  0  0  0  0  0  0
    8.5737   -0.8250    0.0000 C   0  0  0  0  0  0  0  0  0  0  0  0
    7.8592   -1.2375    0.0000 C   0  0  0  0  0  0  0  0  0  0  0  0
    7.1447   -0.8250    0.0000 C   0  0  0  0  0  0  0  0  0  0  0  0
    6.4302   -1.2375    0.0000 C   0  0  0  0  0  0  0  0  0  0  0  0
    6.4302   -2.0625    0.0000 O   0  0  0  0  0  0  0  0  0  0  0  0
    5.7158   -0.8250    0.0000 N   0  0  0  0  0  0  0  0  0  0  0  0
    5.0013   -1.2375    0.0000 C   0  0  0  0  0  0  0  0  0  0  0  0
    5.0013   -2.0625    0.0000 C   0  0  0  0  0  0  0  0  0  0  0  0
    5.7158   -2.4750    0.0000 C   0  0  0  0  0  0  0  0  0  0  0  0
    5.7158   -3.3000    0.0000 C   0  0  0  0  0  0  0  0  0  0  0  0
    5.0013   -3.7125    0.0000 C   0  0  0  0  0  0  0  0  0  0  0  0
    4.2868   -3.3000    0.0000 C   0  0  0  0  0  0  0  0  0  0  0  0
    4.2868   -2.4750    0.0000 C   0  0  0  0  0  0  0  0  0  0  0  0
    7.1447    0.0000    0.0000 C   0  0  0  0  0  0  0  0  0  0  0  0
  1  2  1  0  0  0  0
  2  3  1  0  0  0  0
  3  4  1  0  0  0  0
  4  5  1  0  0  0  0
  5  6  1  0  0  0  0
  6  7  4  0  0  0  0
  7  8  4  0  0  0  0
  8  9  1  0  0  0  0
  8 10  4  0  0  0  0
 10 11  4  0  0  0  0
 11 12  4  0  0  0  0
 12 13  4  0  0  0  0
 13 14  4  0  0  0  0
 14 15  4  0  0  0  0
 15 16  1  0  0  0  0
 16 17  2  0  0  0  0
 16 18  1  0  0  0  0
 18 19  1  0  0  0  0
 19 20  1  0  0  0  0
 20 21  4  0  0  0  0
 21 22  4  0  0  0  0
 22 23  4  0  0  0  0
 23 24  4  0  0  0  0
 24 25  4  0  0  0  0
 20 25  4  0  0  0  0
 15 26  4  0  0  0  0
  6 26  4  0  0  0  0
 11 26  4  0  0  0  0
M  END
>  <CdId>
674

>  <Mol Weight>
349.438

>  <Formula>
C20H23N5O

>  <Molecule ChEMBL ID>
CHEMBL4213687

>  <Molecule Max Phase>
None

>  <Molecular Weight>
349.44

>  <#RO5 Violations>
0

>  <AlogP>
3.35

>  <Compound Key>
45

>  <Standard Type>
IC50

>  <Standard Relation>
'>'

>  <Standard Value>
10000.0

>  <Standard Units>
nM

$$$$

  Mrv2114 03112311372D          

 30 32  0  0  0  0            999 V2000
   -7.1447   -0.0000    0.0000 O   0  0  0  0  0  0  0  0  0  0  0  0
   -6.4302   -0.4125    0.0000 C   0  0  0  0  0  0  0  0  0  0  0  0
   -6.4302   -1.2375    0.0000 O   0  0  0  0  0  0  0  0  0  0  0  0
   -5.7158   -0.0000    0.0000 C   0  0  0  0  0  0  0  0  0  0  0  0
   -5.0013   -0.4125    0.0000 O   0  0  0  0  0  0  0  0  0  0  0  0
   -4.2868   -0.0000    0.0000 C   0  0  0  0  0  0  0  0  0  0  0  0
   -3.5724   -0.4125    0.0000 C   0  0  1  0  0  0  0  0  0  0  0  0
   -2.8579   -0.0000    0.0000 C   0  0  0  0  0  0  0  0  0  0  0  0
   -2.1434   -0.4125    0.0000 C   0  0  0  0  0  0  0  0  0  0  0  0
   -2.1434   -1.2375    0.0000 C   0  0  2  0  0  0  0  0  0  0  0  0
   -1.4289   -1.6500    0.0000 C   0  0  0  0  0  0  0  0  0  0  0  0
   -0.7145   -1.2375    0.0000 O   0  0  0  0  0  0  0  0  0  0  0  0
    0.0000   -1.6500    0.0000 C   0  0  0  0  0  0  0  0  0  0  0  0
    0.0000   -2.4750    0.0000 O   0  0  0  0  0  0  0  0  0  0  0  0
    0.7145   -1.2375    0.0000 N   0  0  0  0  0  0  0  0  0  0  0  0
    1.4289   -1.6500    0.0000 C   0  0  0  0  0  0  0  0  0  0  0  0
    2.1434   -1.2375    0.0000 C   0  0  0  0  0  0  0  0  0  0  0  0
    2.8579   -1.6500    0.0000 C   0  0  0  0  0  0  0  0  0  0  0  0
    2.8579   -2.4750    0.0000 C   0  0  0  0  0  0  0  0  0  0  0  0
    2.1434   -2.8875    0.0000 C   0  0  0  0  0  0  0  0  0  0  0  0
    1.4289   -2.4750    0.0000 C   0  0  0  0  0  0  0  0  0  0  0  0
    0.7145   -0.4125    0.0000 C   0  0  0  0  0  0  0  0  0  0  0  0
    0.0000    0.0000    0.0000 C   0  0  0  0  0  0  0  0  0  0  0  0
    0.0000    0.8250    0.0000 C   0  0  0  0  0  0  0  0  0  0  0  0
    0.7145    1.2375    0.0000 C   0  0  0  0  0  0  0  0  0  0  0  0
    1.4289    0.8250    0.0000 C   0  0  0  0  0  0  0  0  0  0  0  0
    2.1434    1.2375    0.0000 F   0  0  0  0  0  0  0  0  0  0  0  0
    1.4289    0.0000    0.0000 C   0  0  0  0  0  0  0  0  0  0  0  0
   -2.8579   -1.6500    0.0000 C   0  0  0  0  0  0  0  0  0  0  0  0
   -3.5724   -1.2375    0.0000 C   0  0  0  0  0  0  0  0  0  0  0  0
  1  2  2  0  0  0  0
  2  3  1  0  0  0  0
  2  4  1  0  0  0  0
  4  5  1  0  0  0  0
  5  6  1  0  0  0  0
  7  6  1  1  0  0  0
  7  8  1  0  0  0  0
  8  9  1  0  0  0  0
 10  9  1  0  0  0  0
 10 11  1  6  0  0  0
 11 12  1  0  0  0  0
 12 13  1  0  0  0  0
 13 14  2  0  0  0  0
 13 15  1  0  0  0  0
 15 16  1  0  0  0  0
 16 17  4  0  0  0  0
 17 18  4  0  0  0  0
 18 19  4  0  0  0  0
 19 20  4  0  0  0  0
 20 21  4  0  0  0  0
 16 21  4  0  0  0  0
 15 22  1  0  0  0  0
 22 23  4  0  0  0  0
 23 24  4  0  0  0  0
 24 25  4  0  0  0  0
 25 26  4  0  0  0  0
 26 27  1  0  0  0  0
 26 28  4  0  0  0  0
 22 28  4  0  0  0  0
 10 29  1  0  0  0  0
 29 30  1  0  0  0  0
  7 30  1  0  0  0  0
M  END
>  <CdId>
675

>  <Mol Weight>
415.461

>  <Formula>
C23H26FNO5

>  <Molecule ChEMBL ID>
CHEMBL3933704

>  <Molecule Max Phase>
None

>  <Molecular Weight>
415.46

>  <#RO5 Violations>
1

>  <AlogP>
5.01

>  <Compound Key>
5g

>  <Standard Type>
IC50

>  <Standard Relation>
'>'

>  <Standard Value>
50000.0

>  <Standard Units>
nM

$$$$

  Mrv2114 03112311372D          

 23 27  0  0  1  0            999 V2000
    7.2002   -0.5025    0.0000 C   0  0  0  0  0  0  0  0  0  0  0  0
    6.5736   -1.0392    0.0000 C   0  0  0  0  0  0  0  0  0  0  0  0
    5.7955   -0.7649    0.0000 C   0  0  0  0  0  0  0  0  0  0  0  0
    5.6441    0.0461    0.0000 C   0  0  0  0  0  0  0  0  0  0  0  0
    4.8660    0.3204    0.0000 C   0  0  0  0  0  0  0  0  0  0  0  0
    4.7145    1.1314    0.0000 C   0  0  0  0  0  0  0  0  0  0  0  0
    3.9365    1.4057    0.0000 N   0  0  0  0  0  0  0  0  0  0  0  0
    3.3099    0.8690    0.0000 C   0  0  0  0  0  0  0  0  0  0  0  0
    3.3757    0.0466    0.0000 N   0  0  0  0  0  0  0  0  0  0  0  0
    2.6140   -0.2701    0.0000 C   0  0  0  0  0  0  0  0  0  0  0  0
    2.0773    0.3565    0.0000 C   0  0  2  0  0  0  0  0  0  0  0  0
    1.7232   -0.3887    0.0000 C   0  0  0  0  0  0  0  0  0  0  0  0
    0.9008   -0.4545    0.0000 N   0  0  0  0  0  0  0  0  0  0  0  0
    0.4326    0.2247    0.0000 C   0  0  0  0  0  0  0  0  0  0  0  0
    0.7867    0.9698    0.0000 C   0  0  0  0  0  0  0  0  0  0  0  0
    1.6091    1.0357    0.0000 C   0  0  0  0  0  0  0  0  0  0  0  0
    1.2488    0.5980    0.0000 C   0  0  0  0  0  0  0  0  0  0  0  0
    1.0127    0.1012    0.0000 C   0  0  0  0  0  0  0  0  0  0  0  0
    2.5074    1.0605    0.0000 O   0  0  0  0  0  0  0  0  0  0  0  0
    5.3411    1.6680    0.0000 N   0  0  0  0  0  0  0  0  0  0  0  0
    6.1192    1.3937    0.0000 C   0  0  0  0  0  0  0  0  0  0  0  0
    6.2707    0.5828    0.0000 C   0  0  0  0  0  0  0  0  0  0  0  0
    7.0487    0.3084    0.0000 C   0  0  0  0  0  0  0  0  0  0  0  0
  1  2  4  0  0  0  0
  2  3  4  0  0  0  0
  3  4  4  0  0  0  0
  4  5  4  0  0  0  0
  5  6  4  0  0  0  0
  6  7  1  0  0  0  0
  7  8  1  0  0  0  0
  8  9  2  0  0  0  0
  9 10  1  0  0  0  0
 11 10  1  0  0  0  0
 11 12  1  0  0  0  0
 12 13  1  0  0  0  0
 13 14  1  0  0  0  0
 14 15  1  0  0  0  0
 15 16  1  0  0  0  0
 11 16  1  0  0  0  0
 16 17  1  0  0  0  0
 17 18  1  0  0  0  0
 13 18  1  0  0  0  0
 11 19  1  1  0  0  0
  8 19  1  0  0  0  0
  6 20  4  0  0  0  0
 20 21  4  0  0  0  0
 21 22  4  0  0  0  0
  4 22  4  0  0  0  0
 22 23  4  0  0  0  0
  1 23  4  0  0  0  0
M  END
>  <CdId>
676

>  <Mol Weight>
308.385

>  <Formula>
C18H20N4O

>  <Molecule ChEMBL ID>
CHEMBL3918431

>  <Molecule Max Phase>
None

>  <Molecular Weight>
308.39

>  <#RO5 Violations>
0

>  <AlogP>
2.5

>  <Compound Key>
1a; BMS-902483

>  <Standard Type>
IC50

>  <Standard Relation>
'>'

>  <Standard Value>
40000.0

>  <Standard Units>
nM

$$$$

  Mrv2114 03112311372D          

 20 20  0  0  0  0            999 V2000
    2.8579   -6.6000    0.0000 C   0  0  0  0  0  0  0  0  0  0  0  0
    3.5724   -6.1875    0.0000 C   0  0  0  0  0  0  0  0  0  0  0  0
    4.2868   -6.6000    0.0000 C   0  0  0  0  0  0  0  0  0  0  0  0
    5.0013   -6.1875    0.0000 C   0  0  0  0  0  0  0  0  0  0  0  0
    5.7158   -6.6000    0.0000 C   0  0  0  0  0  0  0  0  0  0  0  0
    6.4302   -6.1875    0.0000 C   0  0  0  0  0  0  0  0  0  0  0  0
    7.1447   -6.6000    0.0000 C   0  0  0  0  0  0  0  0  0  0  0  0
    7.8592   -6.1875    0.0000 C   0  0  0  0  0  0  0  0  0  0  0  0
    7.8592   -5.3625    0.0000 O   0  0  0  0  0  0  0  0  0  0  0  0
    8.5737   -6.6000    0.0000 C   0  0  0  0  0  0  0  0  0  0  0  0
    9.2881   -6.1875    0.0000 C   0  0  0  0  0  0  0  0  0  0  0  0
   10.0026   -6.6000    0.0000 C   0  0  0  0  0  0  0  0  0  0  0  0
   10.7171   -6.1875    0.0000 C   0  0  0  0  0  0  0  0  0  0  0  0
   11.4315   -6.6000    0.0000 C   0  0  0  0  0  0  0  0  0  0  0  0
   11.4315   -7.4250    0.0000 C   0  0  0  0  0  0  0  0  0  0  0  0
   12.1460   -7.8375    0.0000 O   0  0  0  0  0  0  0  0  0  0  0  0
   10.7171   -7.8375    0.0000 C   0  0  0  0  0  0  0  0  0  0  0  0
   10.7171   -8.6625    0.0000 O   0  0  0  0  0  0  0  0  0  0  0  0
   10.0026   -9.0750    0.0000 C   0  0  0  0  0  0  0  0  0  0  0  0
   10.0026   -7.4250    0.0000 C   0  0  0  0  0  0  0  0  0  0  0  0
  1  2  1  0  0  0  0
  2  3  1  0  0  0  0
  3  4  1  0  0  0  0
  4  5  1  0  0  0  0
  5  6  1  0  0  0  0
  6  7  1  0  0  0  0
  7  8  1  0  0  0  0
  8  9  2  0  0  0  0
  8 10  1  0  0  0  0
 10 11  1  0  0  0  0
 11 12  1  0  0  0  0
 12 13  4  0  0  0  0
 13 14  4  0  0  0  0
 14 15  4  0  0  0  0
 15 16  1  0  0  0  0
 15 17  4  0  0  0  0
 17 18  1  0  0  0  0
 18 19  1  0  0  0  0
 17 20  4  0  0  0  0
 12 20  4  0  0  0  0
M  END
>  <CdId>
677

>  <Mol Weight>
278.392

>  <Formula>
C17H26O3

>  <Molecule ChEMBL ID>
CHEMBL2071440

>  <Molecule Max Phase>
None

>  <Molecular Weight>
278.39

>  <#RO5 Violations>
0

>  <AlogP>
4.26

>  <Compound Key>
6-Paradol

>  <Standard Type>
IC50

>  <Standard Relation>
'='

>  <Standard Value>
8300.0

>  <Standard Units>
nM

$$$$

  Mrv2114 03112311372D          

 27 29  0  0  0  0            999 V2000
    0.0000   -2.4750    0.0000 O   0  0  0  0  0  0  0  0  0  0  0  0
    0.0000   -1.6500    0.0000 C   0  0  0  0  0  0  0  0  0  0  0  0
   -0.7145   -1.2375    0.0000 C   0  0  0  0  0  0  0  0  0  0  0  0
   -1.4289   -1.6500    0.0000 C   0  0  0  0  0  0  0  0  0  0  0  0
   -1.4289   -2.4750    0.0000 C   0  0  0  0  0  0  0  0  0  0  0  0
   -0.7615   -2.9599    0.0000 C   0  0  0  0  0  0  0  0  0  0  0  0
   -1.0164   -3.7445    0.0000 S   0  0  0  0  0  0  0  0  0  0  0  0
   -1.8414   -3.7445    0.0000 C   0  0  0  0  0  0  0  0  0  0  0  0
   -2.3264   -4.4120    0.0000 C   0  0  0  0  0  0  0  0  0  0  0  0
   -1.9908   -5.1657    0.0000 C   0  0  0  0  0  0  0  0  0  0  0  0
   -2.4757   -5.8331    0.0000 C   0  0  0  0  0  0  0  0  0  0  0  0
   -3.2962   -5.7469    0.0000 C   0  0  0  0  0  0  0  0  0  0  0  0
   -3.7811   -6.4143    0.0000 O   0  0  0  0  0  0  0  0  0  0  0  0
   -3.6318   -4.9932    0.0000 C   0  0  0  0  0  0  0  0  0  0  0  0
   -3.1468   -4.3257    0.0000 C   0  0  0  0  0  0  0  0  0  0  0  0
   -3.4824   -3.5721    0.0000 Cl  0  0  0  0  0  0  0  0  0  0  0  0
   -2.0964   -2.9599    0.0000 N   0  0  0  0  0  0  0  0  0  0  0  0
    0.7145   -1.2375    0.0000 N   0  0  0  0  0  0  0  0  0  0  0  0
    0.7145   -0.4125    0.0000 C   0  0  0  0  0  0  0  0  0  0  0  0
    0.0000    0.0000    0.0000 C   0  0  0  0  0  0  0  0  0  0  0  0
    0.0000    0.8250    0.0000 C   0  0  0  0  0  0  0  0  0  0  0  0
    0.7145    1.2375    0.0000 C   0  0  0  0  0  0  0  0  0  0  0  0
    1.4289    0.8250    0.0000 C   0  0  0  0  0  0  0  0  0  0  0  0
    1.4289    0.0000    0.0000 C   0  0  0  0  0  0  0  0  0  0  0  0
    2.1434   -0.4125    0.0000 C   0  0  0  0  0  0  0  0  0  0  0  0
    2.1434   -1.2375    0.0000 O   0  0  0  0  0  0  0  0  0  0  0  0
    2.8579    0.0000    0.0000 O   0  0  0  0  0  0  0  0  0  0  0  0
  1  2  2  0  0  0  0
  2  3  1  0  0  0  0
  3  4  1  0  0  0  0
  4  5  1  0  0  0  0
  5  6  4  0  0  0  0
  6  7  4  0  0  0  0
  7  8  4  0  0  0  0
  8  9  1  0  0  0  0
  9 10  4  0  0  0  0
 10 11  4  0  0  0  0
 11 12  4  0  0  0  0
 12 13  1  0  0  0  0
 12 14  4  0  0  0  0
 14 15  4  0  0  0  0
  9 15  4  0  0  0  0
 15 16  1  0  0  0  0
  8 17  4  0  0  0  0
  5 17  4  0  0  0  0
  2 18  1  0  0  0  0
 18 19  1  0  0  0  0
 19 20  4  0  0  0  0
 20 21  4  0  0  0  0
 21 22  4  0  0  0  0
 22 23  4  0  0  0  0
 23 24  4  0  0  0  0
 19 24  4  0  0  0  0
 24 25  1  0  0  0  0
 25 26  2  0  0  0  0
 25 27  1  0  0  0  0
M  END
>  <CdId>
678

>  <Mol Weight>
402.85

>  <Formula>
C19H15ClN2O4S

>  <Molecule ChEMBL ID>
CHEMBL482480

>  <Molecule Max Phase>
None

>  <Molecular Weight>
402.86

>  <#RO5 Violations>
0

>  <AlogP>
4.44

>  <Compound Key>
20

>  <Standard Type>
IC50

>  <Standard Relation>
'='

>  <Standard Value>
2800.0

>  <Standard Units>
nM

$$$$

  Mrv2114 03112311372D          

 31 35  0  0  0  0            999 V2000
    0.9380   -6.0340    0.0000 C   0  0  0  0  0  0  0  0  0  0  0  0
    1.7450   -5.8625    0.0000 C   0  0  0  0  0  0  0  0  0  0  0  0
    1.9999   -5.0779    0.0000 N   0  0  0  0  0  0  0  0  0  0  0  0
    1.5150   -4.4104    0.0000 C   0  0  0  0  0  0  0  0  0  0  0  0
    1.9999   -3.7430    0.0000 N   0  0  0  0  0  0  0  0  0  0  0  0
    2.7845   -3.9979    0.0000 C   0  0  0  0  0  0  0  0  0  0  0  0
    3.4990   -3.5854    0.0000 C   0  0  0  0  0  0  0  0  0  0  0  0
    3.4990   -2.7604    0.0000 C   0  0  0  0  0  0  0  0  0  0  0  0
    2.7845   -2.3479    0.0000 C   0  0  0  0  0  0  0  0  0  0  0  0
    2.7845   -1.5229    0.0000 C   0  0  0  0  0  0  0  0  0  0  0  0
    3.4990   -1.1104    0.0000 C   0  0  0  0  0  0  0  0  0  0  0  0
    3.4990   -0.2854    0.0000 F   0  0  0  0  0  0  0  0  0  0  0  0
    4.2135   -1.5229    0.0000 C   0  0  0  0  0  0  0  0  0  0  0  0
    4.9279   -1.1104    0.0000 C   0  0  0  0  0  0  0  0  0  0  0  0
    4.9279   -0.2854    0.0000 C   0  0  0  0  0  0  0  0  0  0  0  0
    5.6424    0.1271    0.0000 C   0  0  0  0  0  0  0  0  0  0  0  0
    6.3569   -0.2854    0.0000 C   0  0  0  0  0  0  0  0  0  0  0  0
    6.3569   -1.1104    0.0000 C   0  0  0  0  0  0  0  0  0  0  0  0
    5.6424   -1.5229    0.0000 C   0  0  0  0  0  0  0  0  0  0  0  0
    5.6424   -2.3479    0.0000 O   0  0  0  0  0  0  0  0  0  0  0  0
    4.9279   -2.7604    0.0000 C   0  0  0  0  0  0  0  0  0  0  0  0
    6.9700    0.2666    0.0000 C   0  0  0  0  0  0  0  0  0  0  0  0
    7.7769    0.0951    0.0000 O   0  0  0  0  0  0  0  0  0  0  0  0
    6.6344    1.0203    0.0000 N   0  0  0  0  0  0  0  0  0  0  0  0
    7.0469    1.7347    0.0000 C   0  0  0  0  0  0  0  0  0  0  0  0
    5.8139    0.9340    0.0000 C   0  0  0  0  0  0  0  0  0  0  0  0
    4.2135   -2.3479    0.0000 C   0  0  0  0  0  0  0  0  0  0  0  0
    4.2135   -3.9979    0.0000 C   0  0  0  0  0  0  0  0  0  0  0  0
    4.2135   -4.8229    0.0000 N   0  0  0  0  0  0  0  0  0  0  0  0
    3.4990   -5.2354    0.0000 N   0  0  0  0  0  0  0  0  0  0  0  0
    2.7845   -4.8229    0.0000 C   0  0  0  0  0  0  0  0  0  0  0  0
  1  2  1  0  0  0  0
  2  3  1  0  0  0  0
  3  4  4  0  0  0  0
  4  5  4  0  0  0  0
  5  6  4  0  0  0  0
  6  7  4  0  0  0  0
  7  8  1  0  0  0  0
  8  9  4  0  0  0  0
  9 10  4  0  0  0  0
 10 11  4  0  0  0  0
 11 12  1  0  0  0  0
 11 13  4  0  0  0  0
 13 14  1  0  0  0  0
 14 15  4  0  0  0  0
 15 16  4  0  0  0  0
 16 17  4  0  0  0  0
 17 18  4  0  0  0  0
 18 19  4  0  0  0  0
 14 19  4  0  0  0  0
 19 20  1  0  0  0  0
 20 21  1  0  0  0  0
 17 22  1  0  0  0  0
 22 23  2  0  0  0  0
 22 24  1  0  0  0  0
 24 25  1  0  0  0  0
 24 26  1  0  0  0  0
 16 26  1  0  0  0  0
 13 27  4  0  0  0  0
  8 27  4  0  0  0  0
  7 28  4  0  0  0  0
 28 29  4  0  0  0  0
 29 30  4  0  0  0  0
 30 31  4  0  0  0  0
  6 31  4  0  0  0  0
  3 31  4  0  0  0  0
M  END
>  <CdId>
679

>  <Mol Weight>
417.444

>  <Formula>
C23H20FN5O2

>  <Molecule ChEMBL ID>
CHEMBL4545044

>  <Molecule Max Phase>
None

>  <Molecular Weight>
417.44

>  <#RO5 Violations>
0

>  <AlogP>
3.91

>  <Compound Key>
46; PF-06659286

>  <Standard Type>
IC50

>  <Standard Relation>
'='

>  <Standard Value>
15200.0

>  <Standard Units>
nM

$$$$

  Mrv2114 03112311372D          

 45 50  0  0  1  0            999 V2000
   -6.4302   -2.0625    0.0000 C   0  0  0  0  0  0  0  0  0  0  0  0
   -5.7158   -1.6500    0.0000 N   0  0  0  0  0  0  0  0  0  0  0  0
   -5.7158   -0.8250    0.0000 C   0  0  1  0  0  0  0  0  0  0  0  0
   -6.4302   -0.4125    0.0000 C   0  0  0  0  0  0  0  0  0  0  0  0
   -5.0013   -0.4125    0.0000 C   0  0  0  0  0  0  0  0  0  0  0  0
   -4.2868   -0.8250    0.0000 O   0  0  0  0  0  0  0  0  0  0  0  0
   -5.0013    0.4125    0.0000 N   0  0  0  0  0  0  0  0  0  0  0  0
   -4.2868    0.8250    0.0000 C   0  0  0  0  0  0  0  0  0  0  0  0
   -4.2868    1.6500    0.0000 C   0  0  0  0  0  0  0  0  0  0  0  0
   -3.5724    2.0625    0.0000 C   0  0  0  0  0  0  0  0  0  0  0  0
   -2.8579    1.6500    0.0000 C   0  0  0  0  0  0  0  0  0  0  0  0
   -2.1434    2.0625    0.0000 C   0  0  0  0  0  0  0  0  0  0  0  0
   -2.0572    2.8830    0.0000 C   0  0  0  0  0  0  0  0  0  0  0  0
   -2.6703    3.4350    0.0000 C   0  0  0  0  0  0  0  0  0  0  0  0
   -3.4549    3.1801    0.0000 C   0  0  0  0  0  0  0  0  0  0  0  0
   -4.0680    3.7321    0.0000 C   0  0  0  0  0  0  0  0  0  0  0  0
   -3.8965    4.5391    0.0000 N   0  0  0  0  0  0  0  0  0  0  0  0
   -3.1118    4.7940    0.0000 C   0  0  0  0  0  0  0  0  0  0  0  0
   -2.9403    5.6010    0.0000 O   0  0  0  0  0  0  0  0  0  0  0  0
   -3.5534    6.1530    0.0000 C   0  0  0  0  0  0  0  0  0  0  0  0
   -2.4987    4.2420    0.0000 C   0  0  0  0  0  0  0  0  0  0  0  0
   -1.2502    3.0545    0.0000 N   0  0  0  0  0  0  0  0  0  0  0  0
   -0.8377    2.3400    0.0000 C   0  0  0  0  0  0  0  0  0  0  0  0
   -0.0307    2.1685    0.0000 C   0  0  0  0  0  0  0  0  0  0  0  0
    0.2242    1.3839    0.0000 C   0  0  0  0  0  0  0  0  0  0  0  0
    1.0312    1.2124    0.0000 C   0  0  0  0  0  0  0  0  0  0  0  0
   -0.3278    0.7708    0.0000 C   0  0  0  0  0  0  0  0  0  0  0  0
   -1.1348    0.9423    0.0000 C   0  0  0  0  0  0  0  0  0  0  0  0
   -1.3897    1.7269    0.0000 N   0  0  0  0  0  0  0  0  0  0  0  0
   -2.8579    0.8250    0.0000 C   0  0  0  0  0  0  0  0  0  0  0  0
   -2.1434    0.4125    0.0000 C   0  0  0  0  0  0  0  0  0  0  0  0
   -1.4289    0.0000    0.0000 C   0  0  0  0  0  0  0  0  0  0  0  0
   -0.7145   -0.4125    0.0000 C   0  0  0  0  0  0  0  0  0  0  0  0
   -0.7145   -1.2375    0.0000 C   0  0  0  0  0  0  0  0  0  0  0  0
    0.0000   -1.6500    0.0000 C   0  0  0  0  0  0  0  0  0  0  0  0
    0.7145   -1.2375    0.0000 C   0  0  0  0  0  0  0  0  0  0  0  0
    0.7145   -0.4125    0.0000 C   0  0  0  0  0  0  0  0  0  0  0  0
    1.4289   -0.0000    0.0000 C   0  0  0  0  0  0  0  0  0  0  0  0
    2.1434   -0.4125    0.0000 C   0  0  0  0  0  0  0  0  0  0  0  0
    2.1434   -1.2375    0.0000 C   0  0  0  0  0  0  0  0  0  0  0  0
    2.8579   -1.6500    0.0000 O   0  0  0  0  0  0  0  0  0  0  0  0
    1.4289   -1.6500    0.0000 N   0  0  0  0  0  0  0  0  0  0  0  0
    1.4289   -2.4750    0.0000 C   0  0  0  0  0  0  0  0  0  0  0  0
    0.0000   -0.0000    0.0000 C   0  0  0  0  0  0  0  0  0  0  0  0
   -3.5724    0.4125    0.0000 N   0  0  0  0  0  0  0  0  0  0  0  0
  1  2  1  0  0  0  0
  3  2  1  0  0  0  0
  3  4  1  1  0  0  0
  3  5  1  0  0  0  0
  5  6  2  0  0  0  0
  5  7  1  0  0  0  0
  7  8  1  0  0  0  0
  8  9  4  0  0  0  0
  9 10  4  0  0  0  0
 10 11  4  0  0  0  0
 11 12  1  0  0  0  0
 12 13  4  0  0  0  0
 13 14  1  0  0  0  0
 14 15  4  0  0  0  0
 15 16  4  0  0  0  0
 16 17  4  0  0  0  0
 17 18  4  0  0  0  0
 18 19  1  0  0  0  0
 19 20  1  0  0  0  0
 18 21  4  0  0  0  0
 14 21  4  0  0  0  0
 13 22  4  0  0  0  0
 22 23  4  0  0  0  0
 23 24  4  0  0  0  0
 24 25  4  0  0  0  0
 25 26  1  0  0  0  0
 25 27  4  0  0  0  0
 27 28  4  0  0  0  0
 28 29  4  0  0  0  0
 12 29  4  0  0  0  0
 23 29  4  0  0  0  0
 11 30  4  0  0  0  0
 30 31  1  0  0  0  0
 31 32  3  0  0  0  0
 32 33  1  0  0  0  0
 33 34  4  0  0  0  0
 34 35  4  0  0  0  0
 35 36  4  0  0  0  0
 36 37  4  0  0  0  0
 37 38  4  0  0  0  0
 38 39  4  0  0  0  0
 39 40  4  0  0  0  0
 40 41  2  0  0  0  0
 40 42  4  0  0  0  0
 36 42  4  0  0  0  0
 42 43  1  0  0  0  0
 37 44  4  0  0  0  0
 33 44  4  0  0  0  0
 30 45  4  0  0  0  0
  8 45  4  0  0  0  0
M  END
>  <CdId>
680

>  <Mol Weight>
597.679

>  <Formula>
C35H31N7O3

>  <Molecule ChEMBL ID>
CHEMBL3969059

>  <Molecule Max Phase>
None

>  <Molecular Weight>
597.68

>  <#RO5 Violations>
1

>  <AlogP>
4.57

>  <Compound Key>
BDBM254003

>  <Standard Type>
IC50

>  <Standard Relation>
'='

>  <Standard Value>
4500.0

>  <Standard Units>
nM

$$$$

  Mrv2114 03112311372D          

 32 35  0  0  1  0            999 V2000
    0.1175   -0.7470    0.0000 C   0  0  0  0  0  0  0  0  0  0  0  0
    0.6695   -1.3601    0.0000 C   0  0  2  0  0  0  0  0  0  0  0  0
    1.4765   -1.1885    0.0000 C   0  0  0  0  0  0  0  0  0  0  0  0
    2.0285   -1.8016    0.0000 C   0  0  0  0  0  0  0  0  0  0  0  0
    2.8535   -1.8016    0.0000 C   0  0  0  0  0  0  0  0  0  0  0  0
    3.4056   -1.1885    0.0000 C   0  0  0  0  0  0  0  0  0  0  0  0
    4.2125   -1.3601    0.0000 C   0  0  0  0  0  0  0  0  0  0  0  0
    4.4675   -2.1447    0.0000 C   0  0  0  0  0  0  0  0  0  0  0  0
    3.9154   -2.7578    0.0000 C   0  0  0  0  0  0  0  0  0  0  0  0
    3.1085   -2.5862    0.0000 C   0  0  0  0  0  0  0  0  0  0  0  0
    2.4410   -3.0712    0.0000 N   0  0  0  0  0  0  0  0  0  0  0  0
    1.7736   -2.5862    0.0000 C   0  0  0  0  0  0  0  0  0  0  0  0
    0.9666   -2.7578    0.0000 C   0  0  1  0  0  0  0  0  0  0  0  0
    0.7117   -3.5424    0.0000 C   0  0  0  0  0  0  0  0  0  0  0  0
    1.2637   -4.1555    0.0000 C   0  0  0  0  0  0  0  0  0  0  0  0
    2.0707   -3.9840    0.0000 F   0  0  0  0  0  0  0  0  0  0  0  0
    1.0088   -4.9401    0.0000 C   0  0  0  0  0  0  0  0  0  0  0  0
    0.2018   -5.1116    0.0000 C   0  0  0  0  0  0  0  0  0  0  0  0
   -0.0531   -5.8963    0.0000 C   0  0  0  0  0  0  0  0  0  0  0  0
   -0.8601   -6.0678    0.0000 C   0  0  0  0  0  0  0  0  0  0  0  0
   -1.1151   -6.8524    0.0000 C   0  0  0  0  0  0  0  0  0  0  0  0
   -0.5630   -7.4655    0.0000 O   0  0  0  0  0  0  0  0  0  0  0  0
   -1.9220   -7.0239    0.0000 O   0  0  0  0  0  0  0  0  0  0  0  0
   -0.3502   -4.4985    0.0000 C   0  0  0  0  0  0  0  0  0  0  0  0
   -0.0953   -3.7139    0.0000 C   0  0  0  0  0  0  0  0  0  0  0  0
   -0.6473   -3.1008    0.0000 F   0  0  0  0  0  0  0  0  0  0  0  0
    0.4146   -2.1447    0.0000 N   0  0  0  0  0  0  0  0  0  0  0  0
   -0.3924   -2.3162    0.0000 C   0  0  0  0  0  0  0  0  0  0  0  0
   -0.9444   -1.7031    0.0000 C   0  0  0  0  0  0  0  0  0  0  0  0
   -0.3313   -1.1511    0.0000 C   0  0  0  0  0  0  0  0  0  0  0  0
   -1.5575   -2.2551    0.0000 C   0  0  0  0  0  0  0  0  0  0  0  0
   -1.4965   -1.0900    0.0000 F   0  0  0  0  0  0  0  0  0  0  0  0
  2  1  1  6  0  0  0
  2  3  1  0  0  0  0
  3  4  1  0  0  0  0
  4  5  1  0  0  0  0
  5  6  4  0  0  0  0
  6  7  4  0  0  0  0
  7  8  4  0  0  0  0
  8  9  4  0  0  0  0
  9 10  4  0  0  0  0
  5 10  4  0  0  0  0
 10 11  1  0  0  0  0
 11 12  1  0  0  0  0
  4 12  1  0  0  0  0
 13 12  1  0  0  0  0
 13 14  1  1  0  0  0
 14 15  4  0  0  0  0
 15 16  1  0  0  0  0
 15 17  4  0  0  0  0
 17 18  4  0  0  0  0
 18 19  1  0  0  0  0
 19 20  2  0  0  0  0
 20 21  1  0  0  0  0
 21 22  2  0  0  0  0
 21 23  1  0  0  0  0
 18 24  4  0  0  0  0
 24 25  4  0  0  0  0
 14 25  4  0  0  0  0
 25 26  1  0  0  0  0
 13 27  1  0  0  0  0
  2 27  1  0  0  0  0
 27 28  1  0  0  0  0
 28 29  1  0  0  0  0
 29 30  1  0  0  0  0
 29 31  1  0  0  0  0
 29 32  1  0  0  0  0
M  END
>  <CdId>
681

>  <Mol Weight>
444.498

>  <Formula>
C25H27F3N2O2

>  <Molecule ChEMBL ID>
CHEMBL5085311

>  <Molecule Max Phase>
None

>  <Molecular Weight>
444.5

>  <#RO5 Violations>
1

>  <AlogP>
5.52

>  <Compound Key>
9; AZD9496

>  <Standard Type>
IC50

>  <Standard Relation>
'='

>  <Standard Value>
4700.0

>  <Standard Units>
nM

$$$$

  Mrv2114 03112311372D          

 45 49  0  0  1  0            999 V2000
   -2.6410   -5.9694    0.0000 N   0  0  0  0  0  0  0  0  0  0  0  0
   -2.6152   -5.1448    0.0000 C   0  0  0  0  0  0  0  0  0  0  0  0
   -2.5894   -4.3202    0.0000 C   0  0  0  0  0  0  0  0  0  0  0  0
   -1.8624   -3.9303    0.0000 C   0  0  0  0  0  0  0  0  0  0  0  0
   -1.8367   -3.1057    0.0000 N   0  0  0  0  0  0  0  0  0  0  0  0
   -2.4887   -2.6001    0.0000 C   0  0  0  0  0  0  0  0  0  0  0  0
   -3.2809   -2.8304    0.0000 O   0  0  0  0  0  0  0  0  0  0  0  0
   -2.2093   -1.8239    0.0000 C   0  0  0  0  0  0  0  0  0  0  0  0
   -1.3847   -1.8496    0.0000 C   0  0  0  0  0  0  0  0  0  0  0  0
   -1.1544   -2.6418    0.0000 C   0  0  1  0  0  0  0  0  0  0  0  0
   -0.3781   -2.9211    0.0000 C   0  0  0  0  0  0  0  0  0  0  0  0
   -0.2319   -3.7331    0.0000 O   0  0  0  0  0  0  0  0  0  0  0  0
    0.2519   -2.3885    0.0000 N   0  0  0  0  0  0  0  0  0  0  0  0
    0.1913   -1.5657    0.0000 C   0  0  0  0  0  0  0  0  0  0  0  0
    0.9551   -1.2539    0.0000 C   0  0  0  0  0  0  0  0  0  0  0  0
    1.4877   -1.8839    0.0000 C   0  0  1  0  0  0  0  0  0  0  0  0
    1.8467   -1.1411    0.0000 S   0  0  0  0  0  0  0  0  0  0  0  0
    2.5737   -0.7511    0.0000 O   0  0  0  0  0  0  0  0  0  0  0  0
    1.1038   -0.7822    0.0000 O   0  0  0  0  0  0  0  0  0  0  0  0
    2.2056   -0.3983    0.0000 C   0  0  0  0  0  0  0  0  0  0  0  0
    1.7417    0.2840    0.0000 C   0  0  0  0  0  0  0  0  0  0  0  0
    2.1007    1.0268    0.0000 C   0  0  0  0  0  0  0  0  0  0  0  0
    2.9234    1.0874    0.0000 C   0  0  0  0  0  0  0  0  0  0  0  0
    3.2824    1.8302    0.0000 F   0  0  0  0  0  0  0  0  0  0  0  0
    3.3873    0.4051    0.0000 C   0  0  0  0  0  0  0  0  0  0  0  0
    3.0284   -0.3377    0.0000 C   0  0  0  0  0  0  0  0  0  0  0  0
    2.3123   -1.9097    0.0000 C   0  0  0  0  0  0  0  0  0  0  0  0
    2.7469   -1.2084    0.0000 N   0  0  0  0  0  0  0  0  0  0  0  0
    3.5715   -1.2342    0.0000 C   0  0  0  0  0  0  0  0  0  0  0  0
    3.9615   -1.9612    0.0000 C   0  0  0  0  0  0  0  0  0  0  0  0
    4.7861   -1.9870    0.0000 C   0  0  0  0  0  0  0  0  0  0  0  0
    4.8119   -1.1624    0.0000 F   0  0  0  0  0  0  0  0  0  0  0  0
    4.7603   -2.8116    0.0000 C   0  0  0  0  0  0  0  0  0  0  0  0
    4.7346   -3.6362    0.0000 F   0  0  0  0  0  0  0  0  0  0  0  0
    3.9358   -2.7858    0.0000 F   0  0  0  0  0  0  0  0  0  0  0  0
    5.5849   -2.8373    0.0000 F   0  0  0  0  0  0  0  0  0  0  0  0
    5.6107   -2.0127    0.0000 C   0  0  0  0  0  0  0  0  0  0  0  0
    6.4353   -2.0385    0.0000 F   0  0  0  0  0  0  0  0  0  0  0  0
    6.0746   -2.6950    0.0000 F   0  0  0  0  0  0  0  0  0  0  0  0
    5.6365   -1.1881    0.0000 F   0  0  0  0  0  0  0  0  0  0  0  0
    3.5269   -2.6624    0.0000 C   0  0  0  0  0  0  0  0  0  0  0  0
    2.7023   -2.6367    0.0000 C   0  0  0  0  0  0  0  0  0  0  0  0
    2.2677   -3.3379    0.0000 C   0  0  0  0  0  0  0  0  0  0  0  0
    1.4431   -3.3122    0.0000 C   0  0  0  0  0  0  0  0  0  0  0  0
    1.0531   -2.5852    0.0000 C   0  0  1  0  0  0  0  0  0  0  0  0
  1  2  3  0  0  0  0
  2  3  1  0  0  0  0
  3  4  1  0  0  0  0
  4  5  1  0  0  0  0
  5  6  1  0  0  0  0
  6  7  2  0  0  0  0
  6  8  1  0  0  0  0
  8  9  1  0  0  0  0
 10  9  1  0  0  0  0
 10  5  1  0  0  0  0
 10 11  1  1  0  0  0
 11 12  2  0  0  0  0
 11 13  1  0  0  0  0
 13 14  1  0  0  0  0
 14 15  1  0  0  0  0
 16 15  1  0  0  0  0
 16 17  1  6  0  0  0
 17 18  2  0  0  0  0
 17 19  2  0  0  0  0
 17 20  1  0  0  0  0
 20 21  4  0  0  0  0
 21 22  4  0  0  0  0
 22 23  4  0  0  0  0
 23 24  1  0  0  0  0
 23 25  4  0  0  0  0
 25 26  4  0  0  0  0
 20 26  4  0  0  0  0
 16 27  1  0  0  0  0
 27 28  4  0  0  0  0
 28 29  4  0  0  0  0
 29 30  4  0  0  0  0
 30 31  1  0  0  0  0
 31 32  1  0  0  0  0
 31 33  1  0  0  0  0
 33 34  1  0  0  0  0
 33 35  1  0  0  0  0
 33 36  1  0  0  0  0
 31 37  1  0  0  0  0
 37 38  1  0  0  0  0
 37 39  1  0  0  0  0
 37 40  1  0  0  0  0
 30 41  4  0  0  0  0
 41 42  4  0  0  0  0
 27 42  4  0  0  0  0
 42 43  1  0  0  0  0
 43 44  1  0  0  0  0
 45 44  1  0  0  0  0
 45 13  1  1  0  0  0
 16 45  1  0  0  0  0
M  END
>  <CdId>
682

>  <Mol Weight>
664.57

>  <Formula>
C28H24F8N4O4S

>  <Molecule ChEMBL ID>
CHEMBL4793083

>  <Molecule Max Phase>
None

>  <Molecular Weight>
664.57

>  <#RO5 Violations>
1

>  <AlogP>
4.63

>  <Compound Key>
7b

>  <Standard Type>
IC50

>  <Standard Relation>
'>'

>  <Standard Value>
20000.0

>  <Standard Units>
nM

$$$$

  Mrv2114 03112311372D          

 44 47  0  0  1  0            999 V2000
   -1.2518   -3.8045    0.0000 C   0  0  0  0  0  0  0  0  0  0  0  0
   -1.7845   -3.1744    0.0000 C   0  0  1  0  0  0  0  0  0  0  0  0
   -2.3171   -2.5444    0.0000 O   0  0  0  0  0  0  0  0  0  0  0  0
   -2.4145   -3.7071    0.0000 C   0  0  0  0  0  0  0  0  0  0  0  0
   -3.1908   -3.4277    0.0000 S   0  0  0  0  0  0  0  0  0  0  0  0
   -3.9670   -3.1484    0.0000 C   0  0  0  0  0  0  0  0  0  0  0  0
   -3.4701   -4.2040    0.0000 O   0  0  0  0  0  0  0  0  0  0  0  0
   -2.9115   -2.6515    0.0000 O   0  0  0  0  0  0  0  0  0  0  0  0
   -1.1544   -2.6418    0.0000 C   0  0  0  0  0  0  0  0  0  0  0  0
   -1.3007   -1.8299    0.0000 O   0  0  0  0  0  0  0  0  0  0  0  0
   -0.3781   -2.9211    0.0000 N   0  0  0  0  0  0  0  0  0  0  0  0
    0.2519   -2.3885    0.0000 C   0  0  2  0  0  0  0  0  0  0  0  0
    0.1913   -1.5657    0.0000 C   0  0  0  0  0  0  0  0  0  0  0  0
    0.9551   -1.2539    0.0000 C   0  0  0  0  0  0  0  0  0  0  0  0
    1.4877   -1.8839    0.0000 C   0  0  1  0  0  0  0  0  0  0  0  0
    1.8467   -1.1411    0.0000 S   0  0  0  0  0  0  0  0  0  0  0  0
    2.5737   -0.7511    0.0000 O   0  0  0  0  0  0  0  0  0  0  0  0
    1.1038   -0.7822    0.0000 O   0  0  0  0  0  0  0  0  0  0  0  0
    2.2056   -0.3983    0.0000 C   0  0  0  0  0  0  0  0  0  0  0  0
    1.7417    0.2840    0.0000 C   0  0  0  0  0  0  0  0  0  0  0  0
    2.1007    1.0268    0.0000 C   0  0  0  0  0  0  0  0  0  0  0  0
    2.9234    1.0874    0.0000 C   0  0  0  0  0  0  0  0  0  0  0  0
    3.2824    1.8302    0.0000 F   0  0  0  0  0  0  0  0  0  0  0  0
    3.3873    0.4051    0.0000 C   0  0  0  0  0  0  0  0  0  0  0  0
    3.0284   -0.3377    0.0000 C   0  0  0  0  0  0  0  0  0  0  0  0
    2.3123   -1.9097    0.0000 C   0  0  0  0  0  0  0  0  0  0  0  0
    2.7469   -1.2084    0.0000 C   0  0  0  0  0  0  0  0  0  0  0  0
    3.5715   -1.2342    0.0000 C   0  0  0  0  0  0  0  0  0  0  0  0
    3.9615   -1.9612    0.0000 C   0  0  0  0  0  0  0  0  0  0  0  0
    4.7861   -1.9870    0.0000 C   0  0  0  0  0  0  0  0  0  0  0  0
    4.8119   -1.1624    0.0000 F   0  0  0  0  0  0  0  0  0  0  0  0
    4.7603   -2.8116    0.0000 C   0  0  0  0  0  0  0  0  0  0  0  0
    4.7346   -3.6362    0.0000 F   0  0  0  0  0  0  0  0  0  0  0  0
    3.9358   -2.7858    0.0000 F   0  0  0  0  0  0  0  0  0  0  0  0
    5.5849   -2.8373    0.0000 F   0  0  0  0  0  0  0  0  0  0  0  0
    5.6107   -2.0127    0.0000 C   0  0  0  0  0  0  0  0  0  0  0  0
    6.4353   -2.0385    0.0000 F   0  0  0  0  0  0  0  0  0  0  0  0
    6.0746   -2.6950    0.0000 F   0  0  0  0  0  0  0  0  0  0  0  0
    5.6365   -1.1881    0.0000 F   0  0  0  0  0  0  0  0  0  0  0  0
    3.5269   -2.6624    0.0000 N   0  0  0  0  0  0  0  0  0  0  0  0
    2.7023   -2.6367    0.0000 C   0  0  0  0  0  0  0  0  0  0  0  0
    2.2677   -3.3379    0.0000 C   0  0  0  0  0  0  0  0  0  0  0  0
    1.4431   -3.3122    0.0000 C   0  0  0  0  0  0  0  0  0  0  0  0
    1.0531   -2.5852    0.0000 C   0  0  1  0  0  0  0  0  0  0  0  0
  2  1  1  0  0  0  0
  2  3  1  6  0  0  0
  2  4  1  1  0  0  0
  4  5  1  0  0  0  0
  5  6  1  0  0  0  0
  5  7  2  0  0  0  0
  5  8  2  0  0  0  0
  2  9  1  0  0  0  0
  9 10  2  0  0  0  0
  9 11  1  0  0  0  0
 12 11  1  6  0  0  0
 12 13  1  0  0  0  0
 13 14  1  0  0  0  0
 15 14  1  0  0  0  0
 15 16  1  6  0  0  0
 16 17  2  0  0  0  0
 16 18  2  0  0  0  0
 16 19  1  0  0  0  0
 19 20  4  0  0  0  0
 20 21  4  0  0  0  0
 21 22  4  0  0  0  0
 22 23  1  0  0  0  0
 22 24  4  0  0  0  0
 24 25  4  0  0  0  0
 19 25  4  0  0  0  0
 15 26  1  0  0  0  0
 26 27  4  0  0  0  0
 27 28  4  0  0  0  0
 28 29  4  0  0  0  0
 29 30  1  0  0  0  0
 30 31  1  0  0  0  0
 30 32  1  0  0  0  0
 32 33  1  0  0  0  0
 32 34  1  0  0  0  0
 32 35  1  0  0  0  0
 30 36  1  0  0  0  0
 36 37  1  0  0  0  0
 36 38  1  0  0  0  0
 36 39  1  0  0  0  0
 29 40  4  0  0  0  0
 40 41  4  0  0  0  0
 26 41  4  0  0  0  0
 41 42  1  0  0  0  0
 42 43  1  0  0  0  0
 44 43  1  1  0  0  0
 44 12  1  0  0  0  0
 44 15  1  0  0  0  0
M  END
>  <CdId>
683

>  <Mol Weight>
678.61

>  <Formula>
C26H26F8N2O6S2

>  <Molecule ChEMBL ID>
CHEMBL4760466

>  <Molecule Max Phase>
None

>  <Molecular Weight>
678.62

>  <#RO5 Violations>
1

>  <AlogP>
3.82

>  <Compound Key>
8e

>  <Standard Type>
IC50

>  <Standard Relation>
'='

>  <Standard Value>
7600.0

>  <Standard Units>
nM

$$$$

  Mrv2114 03112311372D          

 21 23  0  0  0  0            999 V2000
    5.4957    2.3479    0.0000 F   0  0  0  0  0  0  0  0  0  0  0  0
    4.7812    1.9354    0.0000 C   0  0  0  0  0  0  0  0  0  0  0  0
    4.7812    1.1104    0.0000 F   0  0  0  0  0  0  0  0  0  0  0  0
    4.0668    2.3479    0.0000 O   0  0  0  0  0  0  0  0  0  0  0  0
    3.3523    1.9354    0.0000 C   0  0  0  0  0  0  0  0  0  0  0  0
    3.3523    1.1104    0.0000 C   0  0  0  0  0  0  0  0  0  0  0  0
    2.6378    0.6979    0.0000 C   0  0  0  0  0  0  0  0  0  0  0  0
    1.9233    1.1104    0.0000 C   0  0  0  0  0  0  0  0  0  0  0  0
    1.1387    0.8555    0.0000 N   0  0  0  0  0  0  0  0  0  0  0  0
    0.6538    1.5229    0.0000 C   0  0  0  0  0  0  0  0  0  0  0  0
   -0.1712    1.5229    0.0000 S   0  0  0  0  0  0  0  0  0  0  0  0
   -0.5837    0.8085    0.0000 C   0  0  0  0  0  0  0  0  0  0  0  0
   -1.4087    0.8085    0.0000 C   0  0  0  0  0  0  0  0  0  0  0  0
   -1.8212    0.0940    0.0000 C   0  0  0  0  0  0  0  0  0  0  0  0
   -2.6462    0.0940    0.0000 C   0  0  0  0  0  0  0  0  0  0  0  0
   -3.0587    0.8085    0.0000 C   0  0  0  0  0  0  0  0  0  0  0  0
   -2.6462    1.5229    0.0000 C   0  0  0  0  0  0  0  0  0  0  0  0
   -1.8212    1.5229    0.0000 N   0  0  0  0  0  0  0  0  0  0  0  0
    1.1387    2.1904    0.0000 N   0  0  0  0  0  0  0  0  0  0  0  0
    1.9233    1.9354    0.0000 C   0  0  0  0  0  0  0  0  0  0  0  0
    2.6378    2.3479    0.0000 C   0  0  0  0  0  0  0  0  0  0  0  0
  1  2  1  0  0  0  0
  2  3  1  0  0  0  0
  2  4  1  0  0  0  0
  4  5  1  0  0  0  0
  5  6  4  0  0  0  0
  6  7  4  0  0  0  0
  7  8  4  0  0  0  0
  8  9  4  0  0  0  0
  9 10  4  0  0  0  0
 10 11  1  0  0  0  0
 11 12  1  0  0  0  0
 12 13  1  0  0  0  0
 13 14  4  0  0  0  0
 14 15  4  0  0  0  0
 15 16  4  0  0  0  0
 16 17  4  0  0  0  0
 17 18  4  0  0  0  0
 13 18  4  0  0  0  0
 10 19  4  0  0  0  0
 19 20  4  0  0  0  0
  8 20  4  0  0  0  0
 20 21  4  0  0  0  0
  5 21  4  0  0  0  0
M  STY  1   1 DAT
M  SAL   1  1   9
M  SDT   1 MRV_IMPLICIT_H                                        
M  SDD   1     0.0000    0.0000    DR    ALL  0       0  
M  SED   1 IMPL_H1
M  END
>  <CdId>
684

>  <Mol Weight>
307.32

>  <Formula>
C14H11F2N3OS

>  <Molecule ChEMBL ID>
CHEMBL2019025

>  <Molecule Max Phase>
None

>  <Molecular Weight>
307.32

>  <#RO5 Violations>
0

>  <AlogP>
3.85

>  <Compound Key>
31

>  <Standard Type>
IC50

>  <Standard Relation>
'>'

>  <Standard Value>
50000.0

>  <Standard Units>
nM

$$$$

  Mrv2114 03112311372D          

 22 24  0  0  0  0            999 V2000
   -0.9851   -3.2777    0.0000 C   0  0  0  0  0  0  0  0  0  0  0  0
   -0.1781   -3.1062    0.0000 N   0  0  0  0  0  0  0  0  0  0  0  0
    0.3739   -3.7192    0.0000 C   0  0  0  0  0  0  0  0  0  0  0  0
    0.0768   -2.3215    0.0000 C   0  0  0  0  0  0  0  0  0  0  0  0
   -0.4752   -1.7084    0.0000 O   0  0  0  0  0  0  0  0  0  0  0  0
    0.8838   -2.1500    0.0000 C   0  0  0  0  0  0  0  0  0  0  0  0
    1.1387   -1.3654    0.0000 N   0  0  0  0  0  0  0  0  0  0  0  0
    0.6538   -0.6979    0.0000 C   0  0  0  0  0  0  0  0  0  0  0  0
    1.1387   -0.0305    0.0000 C   0  0  0  0  0  0  0  0  0  0  0  0
    1.9233   -0.2854    0.0000 C   0  0  0  0  0  0  0  0  0  0  0  0
    2.6378    0.1271    0.0000 N   0  0  0  0  0  0  0  0  0  0  0  0
    3.3523   -0.2854    0.0000 C   0  0  0  0  0  0  0  0  0  0  0  0
    3.3523   -1.1104    0.0000 C   0  0  0  0  0  0  0  0  0  0  0  0
    4.0668   -1.5229    0.0000 C   0  0  0  0  0  0  0  0  0  0  0  0
    4.7812   -1.1104    0.0000 C   0  0  0  0  0  0  0  0  0  0  0  0
    5.4957   -1.5229    0.0000 C   0  0  0  0  0  0  0  0  0  0  0  0
    5.4957   -2.3479    0.0000 C   0  0  0  0  0  0  0  0  0  0  0  0
    4.7812   -2.7604    0.0000 C   0  0  0  0  0  0  0  0  0  0  0  0
    4.7812   -3.5854    0.0000 Cl  0  0  0  0  0  0  0  0  0  0  0  0
    4.0668   -2.3479    0.0000 C   0  0  0  0  0  0  0  0  0  0  0  0
    2.6378   -1.5229    0.0000 C   0  0  0  0  0  0  0  0  0  0  0  0
    1.9233   -1.1104    0.0000 C   0  0  0  0  0  0  0  0  0  0  0  0
  1  2  1  0  0  0  0
  2  3  1  0  0  0  0
  2  4  1  0  0  0  0
  4  5  2  0  0  0  0
  4  6  1  0  0  0  0
  6  7  1  0  0  0  0
  7  8  4  0  0  0  0
  8  9  4  0  0  0  0
  9 10  4  0  0  0  0
 10 11  4  0  0  0  0
 11 12  4  0  0  0  0
 12 13  4  0  0  0  0
 13 14  1  0  0  0  0
 14 15  4  0  0  0  0
 15 16  4  0  0  0  0
 16 17  4  0  0  0  0
 17 18  4  0  0  0  0
 18 19  1  0  0  0  0
 18 20  4  0  0  0  0
 14 20  4  0  0  0  0
 13 21  4  0  0  0  0
 21 22  4  0  0  0  0
 10 22  4  0  0  0  0
  7 22  4  0  0  0  0
M  END
>  <CdId>
685

>  <Mol Weight>
313.79

>  <Formula>
C17H16ClN3O

>  <Molecule ChEMBL ID>
CHEMBL4451099

>  <Molecule Max Phase>
None

>  <Molecular Weight>
313.79

>  <#RO5 Violations>
0

>  <AlogP>
3.44

>  <Compound Key>
24

>  <Standard Type>
IC50

>  <Standard Relation>
'>'

>  <Standard Value>
10000.0

>  <Standard Units>
nM

$$$$

  Mrv2114 03112311372D          

 29 32  0  0  0  0            999 V2000
    2.0911   -1.5016    0.0000 C   0  0  0  0  0  0  0  0  0  0  0  0
    1.7821   -0.7366    0.0000 C   0  0  0  0  0  0  0  0  0  0  0  0
    0.9816   -0.5371    0.0000 C   0  0  0  0  0  0  0  0  0  0  0  0
    0.3496   -1.0674    0.0000 C   0  0  0  0  0  0  0  0  0  0  0  0
   -0.2824   -0.5371    0.0000 C   0  0  0  0  0  0  0  0  0  0  0  0
   -1.0576   -0.8192    0.0000 C   0  0  0  0  0  0  0  0  0  0  0  0
   -1.6896   -0.2889    0.0000 C   0  0  0  0  0  0  0  0  0  0  0  0
   -1.5464    0.5235    0.0000 C   0  0  0  0  0  0  0  0  0  0  0  0
   -2.1784    1.0538    0.0000 C   0  0  0  0  0  0  0  0  0  0  0  0
   -2.8103    1.5841    0.0000 F   0  0  0  0  0  0  0  0  0  0  0  0
   -2.7087    0.4219    0.0000 F   0  0  0  0  0  0  0  0  0  0  0  0
   -1.6481    1.6858    0.0000 F   0  0  0  0  0  0  0  0  0  0  0  0
   -0.7711    0.8057    0.0000 N   0  0  0  0  0  0  0  0  0  0  0  0
   -0.1391    0.2754    0.0000 C   0  0  0  0  0  0  0  0  0  0  0  0
    0.7621   -1.7818    0.0000 C   0  0  0  0  0  0  0  0  0  0  0  0
   -0.0629   -1.7818    0.0000 C   0  0  0  0  0  0  0  0  0  0  0  0
    0.9240    0.2859    0.0000 C   0  0  0  0  0  0  0  0  0  0  0  0
    1.6890    0.5950    0.0000 N   0  0  0  0  0  0  0  0  0  0  0  0
    2.2193   -0.0370    0.0000 C   0  0  0  0  0  0  0  0  0  0  0  0
    3.0422    0.0205    0.0000 C   0  0  0  0  0  0  0  0  0  0  0  0
    3.4039    0.7621    0.0000 O   0  0  0  0  0  0  0  0  0  0  0  0
    3.5036   -0.6634    0.0000 N   0  0  0  0  0  0  0  0  0  0  0  0
    4.3266   -0.6059    0.0000 C   0  0  0  0  0  0  0  0  0  0  0  0
    4.6882    0.1356    0.0000 C   0  0  0  0  0  0  0  0  0  0  0  0
    4.7879   -1.2898    0.0000 C   0  0  0  0  0  0  0  0  0  0  0  0
    5.6124   -1.3186    0.0000 N   0  0  0  0  0  0  0  0  0  0  0  0
    5.8398   -2.1116    0.0000 C   0  0  0  0  0  0  0  0  0  0  0  0
    5.1558   -2.5730    0.0000 N   0  0  0  0  0  0  0  0  0  0  0  0
    4.5057   -2.0651    0.0000 N   0  0  0  0  0  0  0  0  0  0  0  0
  1  2  1  0  0  0  0
  2  3  4  0  0  0  0
  3  4  1  0  0  0  0
  4  5  1  0  0  0  0
  5  6  4  0  0  0  0
  6  7  4  0  0  0  0
  7  8  4  0  0  0  0
  8  9  1  0  0  0  0
  9 10  1  0  0  0  0
  9 11  1  0  0  0  0
  9 12  1  0  0  0  0
  8 13  4  0  0  0  0
 13 14  4  0  0  0  0
  5 14  4  0  0  0  0
  4 15  1  0  0  0  0
 15 16  1  0  0  0  0
  4 16  1  0  0  0  0
  3 17  4  0  0  0  0
 17 18  4  0  0  0  0
 18 19  4  0  0  0  0
  2 19  4  0  0  0  0
 19 20  1  0  0  0  0
 20 21  2  0  0  0  0
 20 22  1  0  0  0  0
 22 23  1  0  0  0  0
 23 24  1  0  0  0  0
 23 25  1  0  0  0  0
 25 26  4  0  0  0  0
 26 27  4  0  0  0  0
 27 28  4  0  0  0  0
 28 29  4  0  0  0  0
 25 29  4  0  0  0  0
M  STY  2   1 DAT   2 DAT
M  SAL   1  1  18
M  SDT   1 MRV_IMPLICIT_H                                        
M  SDD   1     0.0000    0.0000    DR    ALL  0       0  
M  SED   1 IMPL_H1
M  SAL   2  1  28
M  SDT   2 MRV_IMPLICIT_H                                        
M  SDD   2     0.0000    0.0000    DR    ALL  0       0  
M  SED   2 IMPL_H1
M  END
>  <CdId>
686

>  <Mol Weight>
404.397

>  <Formula>
C19H19F3N6O

>  <Molecule ChEMBL ID>
CHEMBL4848632

>  <Molecule Max Phase>
None

>  <Molecular Weight>
404.4

>  <#RO5 Violations>
0

>  <AlogP>
3.43

>  <Compound Key>
79; DSM705

>  <Standard Type>
IC50

>  <Standard Relation>
'>'

>  <Standard Value>
20000.0

>  <Standard Units>
nM

$$$$

  Mrv2114 03112311372D          

 21 23  0  0  0  0            999 V2000
    5.2955    4.0936    0.0000 C   0  0  0  0  0  0  0  0  0  0  0  0
    4.9600    3.3400    0.0000 C   0  0  0  0  0  0  0  0  0  0  0  0
    5.3725    2.6255    0.0000 C   0  0  0  0  0  0  0  0  0  0  0  0
    4.8204    2.0124    0.0000 C   0  0  0  0  0  0  0  0  0  0  0  0
    4.0668    2.3479    0.0000 C   0  0  0  0  0  0  0  0  0  0  0  0
    3.3523    1.9354    0.0000 C   0  0  0  0  0  0  0  0  0  0  0  0
    3.3523    1.1104    0.0000 C   0  0  0  0  0  0  0  0  0  0  0  0
    2.6378    0.6979    0.0000 N   0  0  0  0  0  0  0  0  0  0  0  0
    1.9233    1.1104    0.0000 C   0  0  0  0  0  0  0  0  0  0  0  0
    1.1387    0.8555    0.0000 C   0  0  0  0  0  0  0  0  0  0  0  0
    0.6538    1.5229    0.0000 C   0  0  0  0  0  0  0  0  0  0  0  0
    1.1387    2.1904    0.0000 N   0  0  0  0  0  0  0  0  0  0  0  0
    0.8838    2.9750    0.0000 C   0  0  0  0  0  0  0  0  0  0  0  0
    0.0768    3.1465    0.0000 C   0  0  0  0  0  0  0  0  0  0  0  0
   -0.4752    2.5334    0.0000 O   0  0  0  0  0  0  0  0  0  0  0  0
   -0.1781    3.9312    0.0000 N   0  0  0  0  0  0  0  0  0  0  0  0
   -0.9851    4.1027    0.0000 C   0  0  0  0  0  0  0  0  0  0  0  0
    0.3739    4.5442    0.0000 C   0  0  0  0  0  0  0  0  0  0  0  0
    1.9233    1.9354    0.0000 C   0  0  0  0  0  0  0  0  0  0  0  0
    2.6378    2.3479    0.0000 C   0  0  0  0  0  0  0  0  0  0  0  0
    4.1530    3.1684    0.0000 S   0  0  0  0  0  0  0  0  0  0  0  0
  1  2  1  0  0  0  0
  2  3  4  0  0  0  0
  3  4  4  0  0  0  0
  4  5  4  0  0  0  0
  5  6  1  0  0  0  0
  6  7  4  0  0  0  0
  7  8  4  0  0  0  0
  8  9  4  0  0  0  0
  9 10  4  0  0  0  0
 10 11  4  0  0  0  0
 11 12  4  0  0  0  0
 12 13  1  0  0  0  0
 13 14  1  0  0  0  0
 14 15  2  0  0  0  0
 14 16  1  0  0  0  0
 16 17  1  0  0  0  0
 16 18  1  0  0  0  0
 12 19  4  0  0  0  0
  9 19  4  0  0  0  0
 19 20  4  0  0  0  0
  6 20  4  0  0  0  0
  5 21  4  0  0  0  0
  2 21  4  0  0  0  0
M  END
>  <CdId>
687

>  <Mol Weight>
299.39

>  <Formula>
C16H17N3OS

>  <Molecule ChEMBL ID>
CHEMBL4575739

>  <Molecule Max Phase>
None

>  <Molecular Weight>
299.4

>  <#RO5 Violations>
0

>  <AlogP>
3.16

>  <Compound Key>
31

>  <Standard Type>
IC50

>  <Standard Relation>
'>'

>  <Standard Value>
10000.0

>  <Standard Units>
nM

$$$$

  Mrv2114 03112311372D          

 31 34  0  0  1  0            999 V2000
   -0.7145   -2.8875    0.0000 C   0  0  0  0  0  0  0  0  0  0  0  0
   -1.4289   -2.4750    0.0000 O   0  0  0  0  0  0  0  0  0  0  0  0
   -1.4289   -1.6500    0.0000 C   0  0  0  0  0  0  0  0  0  0  0  0
   -2.1434   -1.2375    0.0000 C   0  0  0  0  0  0  0  0  0  0  0  0
   -2.1434   -0.4125    0.0000 C   0  0  0  0  0  0  0  0  0  0  0  0
   -2.8579   -0.0000    0.0000 C   0  0  0  0  0  0  0  0  0  0  0  0
   -1.4289   -0.0000    0.0000 N   0  0  0  0  0  0  0  0  0  0  0  0
   -0.7145   -0.4125    0.0000 C   0  0  0  0  0  0  0  0  0  0  0  0
    0.0000   -0.0000    0.0000 O   0  0  0  0  0  0  0  0  0  0  0  0
   -0.7145   -1.2375    0.0000 C   0  0  0  0  0  0  0  0  0  0  0  0
    0.0000   -1.6500    0.0000 C   0  0  0  0  0  0  0  0  0  0  0  0
    0.7145   -1.2375    0.0000 N   0  0  0  0  0  0  0  0  0  0  0  0
    0.7145   -0.4125    0.0000 C   0  0  0  0  0  0  0  0  0  0  0  0
    1.4289    0.0000    0.0000 C   0  0  0  0  0  0  0  0  0  0  0  0
    2.1434   -0.4125    0.0000 C   0  0  0  0  0  0  0  0  0  0  0  0
    2.8579    0.0000    0.0000 C   0  0  0  0  0  0  0  0  0  0  0  0
    2.8579    0.8250    0.0000 Cl  0  0  0  0  0  0  0  0  0  0  0  0
    3.5724   -0.4125    0.0000 C   0  0  0  0  0  0  0  0  0  0  0  0
    3.5724   -1.2375    0.0000 C   0  0  0  0  0  0  0  0  0  0  0  0
    4.2868   -1.6500    0.0000 C   0  0  2  0  0  0  0  0  0  0  0  0
    5.0013   -1.2375    0.0000 O   0  0  0  0  0  0  0  0  0  0  0  0
    5.7158   -1.6500    0.0000 C   0  0  0  0  0  0  0  0  0  0  0  0
    4.2868   -2.4750    0.0000 C   0  0  0  0  0  0  0  0  0  0  0  0
    4.8702   -3.0584    0.0000 C   0  0  0  0  0  0  0  0  0  0  0  0
    4.2868   -3.6417    0.0000 O   0  0  0  0  0  0  0  0  0  0  0  0
    3.7035   -3.0584    0.0000 C   0  0  0  0  0  0  0  0  0  0  0  0
    2.8579   -1.6500    0.0000 C   0  0  0  0  0  0  0  0  0  0  0  0
    2.8579   -2.4750    0.0000 Cl  0  0  0  0  0  0  0  0  0  0  0  0
    2.1434   -1.2375    0.0000 C   0  0  0  0  0  0  0  0  0  0  0  0
    1.4289   -1.6500    0.0000 C   0  0  0  0  0  0  0  0  0  0  0  0
    1.4289   -2.4750    0.0000 O   0  0  0  0  0  0  0  0  0  0  0  0
  1  2  1  0  0  0  0
  2  3  1  0  0  0  0
  3  4  4  0  0  0  0
  4  5  4  0  0  0  0
  5  6  1  0  0  0  0
  5  7  4  0  0  0  0
  7  8  4  0  0  0  0
  8  9  2  0  0  0  0
  8 10  4  0  0  0  0
  3 10  4  0  0  0  0
 10 11  1  0  0  0  0
 11 12  1  0  0  0  0
 12 13  1  0  0  0  0
 13 14  1  0  0  0  0
 14 15  1  0  0  0  0
 15 16  4  0  0  0  0
 16 17  1  0  0  0  0
 16 18  4  0  0  0  0
 18 19  4  0  0  0  0
 20 19  1  0  0  0  0
 20 21  1  6  0  0  0
 21 22  1  0  0  0  0
 20 23  1  0  0  0  0
 23 24  1  0  0  0  0
 24 25  1  0  0  0  0
 25 26  1  0  0  0  0
 23 26  1  0  0  0  0
 19 27  4  0  0  0  0
 27 28  1  0  0  0  0
 27 29  4  0  0  0  0
 15 29  4  0  0  0  0
 29 30  1  0  0  0  0
 12 30  1  0  0  0  0
 30 31  2  0  0  0  0
M  STY  1   1 DAT
M  SAL   1  1   7
M  SDT   1 MRV_IMPLICIT_H                                        
M  SDD   1     0.0000    0.0000    DR    ALL  0       0  
M  SED   1 IMPL_H1
M  END
>  <CdId>
688

>  <Mol Weight>
467.34

>  <Formula>
C22H24Cl2N2O5

>  <Molecule ChEMBL ID>
CHEMBL4080228

>  <Molecule Name>
PF-06821497

>  <Molecule Max Phase>
1

>  <Molecular Weight>
467.35

>  <#RO5 Violations>
0

>  <AlogP>
3.53

>  <Compound Key>
(+)-23a

>  <Standard Type>
IC50

>  <Standard Relation>
'>'

>  <Standard Value>
30000.0

>  <Standard Units>
nM

$$$$

  Mrv2114 03112311372D          

 36 40  0  0  1  0            999 V2000
    4.2575    1.6387    0.0000 C   0  0  0  0  0  0  0  0  0  0  0  0
    3.7054    1.0256    0.0000 C   0  0  2  0  0  0  0  0  0  0  0  0
    2.8985    1.1971    0.0000 C   0  0  0  0  0  0  0  0  0  0  0  0
    2.3464    0.5840    0.0000 C   0  0  0  0  0  0  0  0  0  0  0  0
    2.6014   -0.2006    0.0000 C   0  0  0  0  0  0  0  0  0  0  0  0
    1.9339   -0.6855    0.0000 N   0  0  0  0  0  0  0  0  0  0  0  0
    1.2665   -0.2006    0.0000 C   0  0  0  0  0  0  0  0  0  0  0  0
    0.4595   -0.3721    0.0000 C   0  0  0  0  0  0  0  0  0  0  0  0
   -0.0925    0.2410    0.0000 C   0  0  0  0  0  0  0  0  0  0  0  0
    0.1624    1.0256    0.0000 C   0  0  0  0  0  0  0  0  0  0  0  0
    0.9694    1.1971    0.0000 C   0  0  0  0  0  0  0  0  0  0  0  0
    1.5214    0.5840    0.0000 C   0  0  0  0  0  0  0  0  0  0  0  0
    3.4084   -0.3721    0.0000 C   0  0  1  0  0  0  0  0  0  0  0  0
    3.6633   -1.1567    0.0000 C   0  0  0  0  0  0  0  0  0  0  0  0
    4.4703   -1.3283    0.0000 C   0  0  0  0  0  0  0  0  0  0  0  0
    5.0223   -0.7152    0.0000 F   0  0  0  0  0  0  0  0  0  0  0  0
    4.7252   -2.1129    0.0000 C   0  0  0  0  0  0  0  0  0  0  0  0
    4.1732   -2.7260    0.0000 C   0  0  0  0  0  0  0  0  0  0  0  0
    4.4281   -3.5106    0.0000 C   0  0  0  0  0  0  0  0  0  0  0  0
    5.2351   -3.6821    0.0000 C   0  0  0  0  0  0  0  0  0  0  0  0
    5.4900   -4.4668    0.0000 C   0  0  0  0  0  0  0  0  0  0  0  0
    4.9380   -5.0799    0.0000 C   0  0  0  0  0  0  0  0  0  0  0  0
    5.1929   -5.8645    0.0000 C   0  0  0  0  0  0  0  0  0  0  0  0
    5.9999   -6.0360    0.0000 O   0  0  0  0  0  0  0  0  0  0  0  0
    4.6409   -6.4776    0.0000 O   0  0  0  0  0  0  0  0  0  0  0  0
    4.1310   -4.9083    0.0000 C   0  0  0  0  0  0  0  0  0  0  0  0
    3.8761   -4.1237    0.0000 C   0  0  0  0  0  0  0  0  0  0  0  0
    3.3662   -2.5545    0.0000 C   0  0  0  0  0  0  0  0  0  0  0  0
    3.1113   -1.7698    0.0000 C   0  0  0  0  0  0  0  0  0  0  0  0
    2.3043   -1.5983    0.0000 F   0  0  0  0  0  0  0  0  0  0  0  0
    3.9604    0.2410    0.0000 N   0  0  0  0  0  0  0  0  0  0  0  0
    4.7674    0.0694    0.0000 C   0  0  0  0  0  0  0  0  0  0  0  0
    5.3194    0.6825    0.0000 C   0  0  0  0  0  0  0  0  0  0  0  0
    4.7063    1.2346    0.0000 C   0  0  0  0  0  0  0  0  0  0  0  0
    5.8714    1.2956    0.0000 C   0  0  0  0  0  0  0  0  0  0  0  0
    5.9325    0.1305    0.0000 F   0  0  0  0  0  0  0  0  0  0  0  0
  2  1  1  1  0  0  0
  2  3  1  0  0  0  0
  3  4  1  0  0  0  0
  4  5  4  0  0  0  0
  5  6  4  0  0  0  0
  6  7  4  0  0  0  0
  7  8  4  0  0  0  0
  8  9  4  0  0  0  0
  9 10  4  0  0  0  0
 10 11  4  0  0  0  0
 11 12  4  0  0  0  0
  4 12  4  0  0  0  0
  7 12  4  0  0  0  0
 13  5  1  0  0  0  0
 13 14  1  6  0  0  0
 14 15  4  0  0  0  0
 15 16  1  0  0  0  0
 15 17  4  0  0  0  0
 17 18  4  0  0  0  0
 18 19  1  0  0  0  0
 19 20  4  0  0  0  0
 20 21  4  0  0  0  0
 21 22  4  0  0  0  0
 22 23  1  0  0  0  0
 23 24  2  0  0  0  0
 23 25  1  0  0  0  0
 22 26  4  0  0  0  0
 26 27  4  0  0  0  0
 19 27  4  0  0  0  0
 18 28  4  0  0  0  0
 28 29  4  0  0  0  0
 14 29  4  0  0  0  0
 29 30  1  0  0  0  0
 13 31  1  0  0  0  0
  2 31  1  0  0  0  0
 31 32  1  0  0  0  0
 32 33  1  0  0  0  0
 33 34  1  0  0  0  0
 33 35  1  0  0  0  0
 33 36  1  0  0  0  0
M  STY  1   1 DAT
M  SAL   1  1   6
M  SDT   1 MRV_IMPLICIT_H                                        
M  SDD   1     0.0000    0.0000    DR    ALL  0       0  
M  SED   1 IMPL_H1
M  END
>  <CdId>
689

>  <Mol Weight>
492.542

>  <Formula>
C29H27F3N2O2

>  <Molecule ChEMBL ID>
CHEMBL5090655

>  <Molecule Max Phase>
None

>  <Molecular Weight>
492.54

>  <#RO5 Violations>
1

>  <AlogP>
6.9

>  <Compound Key>
D24

>  <Standard Type>
IC50

>  <Standard Relation>
'='

>  <Standard Value>
9220.0

>  <Standard Units>
nM

$$$$

  Mrv2114 03112311372D          

 45 50  0  0  0  0            999 V2000
   -7.1447   -6.6000    0.0000 C   0  0  0  0  0  0  0  0  0  0  0  0
   -7.8592   -6.1875    0.0000 O   0  0  0  0  0  0  0  0  0  0  0  0
   -7.8592   -5.3625    0.0000 C   0  0  0  0  0  0  0  0  0  0  0  0
   -8.5737   -4.9500    0.0000 C   0  0  0  0  0  0  0  0  0  0  0  0
   -8.5737   -4.1250    0.0000 C   0  0  0  0  0  0  0  0  0  0  0  0
   -7.8592   -3.7125    0.0000 C   0  0  0  0  0  0  0  0  0  0  0  0
   -7.8592   -2.8875    0.0000 C   0  0  0  0  0  0  0  0  0  0  0  0
   -7.1447   -2.4750    0.0000 N   0  0  0  0  0  0  0  0  0  0  0  0
   -7.1447   -1.6500    0.0000 C   0  0  0  0  0  0  0  0  0  0  0  0
   -6.4302   -1.2375    0.0000 C   0  0  0  0  0  0  0  0  0  0  0  0
   -5.7158   -1.6500    0.0000 N   0  0  0  0  0  0  0  0  0  0  0  0
   -5.0013   -1.2375    0.0000 C   0  0  0  0  0  0  0  0  0  0  0  0
   -5.0013   -0.4125    0.0000 C   0  0  0  0  0  0  0  0  0  0  0  0
   -4.2868   -0.0000    0.0000 C   0  0  0  0  0  0  0  0  0  0  0  0
   -3.5724   -0.4125    0.0000 C   0  0  0  0  0  0  0  0  0  0  0  0
   -2.8579   -0.0000    0.0000 N   0  0  0  0  0  0  0  0  0  0  0  0
   -2.1434   -0.4125    0.0000 C   0  0  0  0  0  0  0  0  0  0  0  0
   -2.1434   -1.2375    0.0000 O   0  0  0  0  0  0  0  0  0  0  0  0
   -1.4289   -0.0000    0.0000 C   0  0  0  0  0  0  0  0  0  0  0  0
   -1.4289    0.8250    0.0000 C   0  0  0  0  0  0  0  0  0  0  0  0
   -0.7145    1.2375    0.0000 C   0  0  0  0  0  0  0  0  0  0  0  0
    0.0000    0.8250    0.0000 C   0  0  0  0  0  0  0  0  0  0  0  0
    0.0000   -0.0000    0.0000 C   0  0  0  0  0  0  0  0  0  0  0  0
   -0.7145   -0.4125    0.0000 C   0  0  0  0  0  0  0  0  0  0  0  0
   -0.7145   -1.2375    0.0000 N   0  0  0  0  0  0  0  0  0  0  0  0
    0.0000   -1.6500    0.0000 C   0  0  0  0  0  0  0  0  0  0  0  0
    0.0000   -2.4750    0.0000 O   0  0  0  0  0  0  0  0  0  0  0  0
    0.7145   -1.2375    0.0000 C   0  0  0  0  0  0  0  0  0  0  0  0
    0.7145   -0.4125    0.0000 C   0  0  0  0  0  0  0  0  0  0  0  0
    1.4289    0.0000    0.0000 N   0  0  0  0  0  0  0  0  0  0  0  0
    2.1434   -0.4125    0.0000 C   0  0  0  0  0  0  0  0  0  0  0  0
    2.8579    0.0000    0.0000 C   0  0  0  0  0  0  0  0  0  0  0  0
    3.5724   -0.4125    0.0000 C   0  0  0  0  0  0  0  0  0  0  0  0
    3.5724   -1.2375    0.0000 C   0  0  0  0  0  0  0  0  0  0  0  0
    2.8579   -1.6500    0.0000 C   0  0  0  0  0  0  0  0  0  0  0  0
    2.1434   -1.2375    0.0000 C   0  0  0  0  0  0  0  0  0  0  0  0
    1.4289   -1.6500    0.0000 C   0  0  0  0  0  0  0  0  0  0  0  0
   -3.5724   -1.2375    0.0000 C   0  0  0  0  0  0  0  0  0  0  0  0
   -4.2868   -1.6500    0.0000 C   0  0  0  0  0  0  0  0  0  0  0  0
   -5.7158   -2.4750    0.0000 C   0  0  0  0  0  0  0  0  0  0  0  0
   -6.4302   -2.8875    0.0000 C   0  0  0  0  0  0  0  0  0  0  0  0
   -7.1447   -4.1250    0.0000 C   0  0  0  0  0  0  0  0  0  0  0  0
   -7.1447   -4.9500    0.0000 C   0  0  0  0  0  0  0  0  0  0  0  0
   -6.4302   -5.3625    0.0000 O   0  0  0  0  0  0  0  0  0  0  0  0
   -6.4302   -6.1875    0.0000 C   0  0  0  0  0  0  0  0  0  0  0  0
  1  2  1  0  0  0  0
  2  3  1  0  0  0  0
  3  4  4  0  0  0  0
  4  5  4  0  0  0  0
  5  6  4  0  0  0  0
  6  7  1  0  0  0  0
  7  8  1  0  0  0  0
  8  9  1  0  0  0  0
  9 10  1  0  0  0  0
 10 11  1  0  0  0  0
 11 12  1  0  0  0  0
 12 13  4  0  0  0  0
 13 14  4  0  0  0  0
 14 15  4  0  0  0  0
 15 16  1  0  0  0  0
 16 17  1  0  0  0  0
 17 18  2  0  0  0  0
 17 19  1  0  0  0  0
 19 20  4  0  0  0  0
 20 21  4  0  0  0  0
 21 22  4  0  0  0  0
 22 23  4  0  0  0  0
 23 24  4  0  0  0  0
 19 24  4  0  0  0  0
 24 25  1  0  0  0  0
 25 26  1  0  0  0  0
 26 27  2  0  0  0  0
 26 28  1  0  0  0  0
 28 29  4  0  0  0  0
 29 30  4  0  0  0  0
 30 31  4  0  0  0  0
 31 32  4  0  0  0  0
 32 33  4  0  0  0  0
 33 34  4  0  0  0  0
 34 35  4  0  0  0  0
 35 36  4  0  0  0  0
 31 36  4  0  0  0  0
 36 37  4  0  0  0  0
 28 37  4  0  0  0  0
 15 38  4  0  0  0  0
 38 39  4  0  0  0  0
 12 39  4  0  0  0  0
 11 40  1  0  0  0  0
 40 41  1  0  0  0  0
  8 41  1  0  0  0  0
  6 42  4  0  0  0  0
 42 43  4  0  0  0  0
  3 43  4  0  0  0  0
 43 44  1  0  0  0  0
 44 45  1  0  0  0  0
M  END
>  <CdId>
690

>  <Mol Weight>
601.707

>  <Formula>
C36H35N5O4

>  <Molecule ChEMBL ID>
CHEMBL266212

>  <Molecule Max Phase>
None

>  <Molecular Weight>
601.71

>  <#RO5 Violations>
2

>  <AlogP>
6.08

>  <Compound Key>
4

>  <Standard Type>
IC50

>  <Standard Relation>
'='

>  <Standard Value>
13300.0

>  <Standard Units>
nM

$$$$

  Mrv2114 03112311372D          

 31 33  0  0  0  0            999 V2000
   -0.5837    1.4455    0.0000 C   0  0  0  0  0  0  0  0  0  0  0  0
   -0.1712    0.7310    0.0000 N   0  0  0  0  0  0  0  0  0  0  0  0
    0.6538    0.7310    0.0000 C   0  0  0  0  0  0  0  0  0  0  0  0
   -0.5837    0.0165    0.0000 C   0  0  0  0  0  0  0  0  0  0  0  0
   -0.1712   -0.6979    0.0000 C   0  0  0  0  0  0  0  0  0  0  0  0
    0.6538   -0.6979    0.0000 N   0  0  0  0  0  0  0  0  0  0  0  0
    1.1387   -0.0305    0.0000 C   0  0  0  0  0  0  0  0  0  0  0  0
    1.9233   -0.2854    0.0000 C   0  0  0  0  0  0  0  0  0  0  0  0
    2.6378    0.1271    0.0000 C   0  0  0  0  0  0  0  0  0  0  0  0
    3.3523   -0.2854    0.0000 C   0  0  0  0  0  0  0  0  0  0  0  0
    4.0668    0.1271    0.0000 N   0  0  0  0  0  0  0  0  0  0  0  0
    4.0668    0.9521    0.0000 C   0  0  0  0  0  0  0  0  0  0  0  0
    4.7812    1.3646    0.0000 O   0  0  0  0  0  0  0  0  0  0  0  0
    3.3523    1.3646    0.0000 C   0  0  0  0  0  0  0  0  0  0  0  0
    2.6378    0.9521    0.0000 C   0  0  0  0  0  0  0  0  0  0  0  0
    1.9233    1.3646    0.0000 C   0  0  0  0  0  0  0  0  0  0  0  0
    1.9233    2.1896    0.0000 C   0  0  0  0  0  0  0  0  0  0  0  0
    2.6378    2.6021    0.0000 C   0  0  0  0  0  0  0  0  0  0  0  0
    2.6378    3.4271    0.0000 C   0  0  0  0  0  0  0  0  0  0  0  0
    2.6378    4.2521    0.0000 F   0  0  0  0  0  0  0  0  0  0  0  0
    3.4628    3.4271    0.0000 F   0  0  0  0  0  0  0  0  0  0  0  0
    1.8128    3.4271    0.0000 F   0  0  0  0  0  0  0  0  0  0  0  0
    3.3523    2.1896    0.0000 N   0  0  0  0  0  0  0  0  0  0  0  0
    3.3523   -1.1104    0.0000 C   0  0  0  0  0  0  0  0  0  0  0  0
    4.0668   -1.5229    0.0000 C   0  0  0  0  0  0  0  0  0  0  0  0
    4.7812   -1.9354    0.0000 C   0  0  0  0  0  0  0  0  0  0  0  0
    3.6543   -2.2374    0.0000 C   0  0  0  0  0  0  0  0  0  0  0  0
    4.4793   -0.8085    0.0000 O   0  0  0  0  0  0  0  0  0  0  0  0
    2.6378   -1.5229    0.0000 C   0  0  0  0  0  0  0  0  0  0  0  0
    1.9233   -1.1104    0.0000 C   0  0  0  0  0  0  0  0  0  0  0  0
    1.1387   -1.3654    0.0000 N   0  0  0  0  0  0  0  0  0  0  0  0
  1  2  1  0  0  0  0
  2  3  1  0  0  0  0
  2  4  1  0  0  0  0
  4  5  1  0  0  0  0
  5  6  1  0  0  0  0
  6  7  4  0  0  0  0
  7  8  4  0  0  0  0
  8  9  4  0  0  0  0
  9 10  4  0  0  0  0
 10 11  1  0  0  0  0
 11 12  1  0  0  0  0
 12 13  2  0  0  0  0
 12 14  1  0  0  0  0
 14 15  4  0  0  0  0
 15 16  4  0  0  0  0
 16 17  4  0  0  0  0
 17 18  4  0  0  0  0
 18 19  1  0  0  0  0
 19 20  1  0  0  0  0
 19 21  1  0  0  0  0
 19 22  1  0  0  0  0
 18 23  4  0  0  0  0
 14 23  4  0  0  0  0
 10 24  4  0  0  0  0
 24 25  1  0  0  0  0
 25 26  1  0  0  0  0
 25 27  1  0  0  0  0
 25 28  1  0  0  0  0
 24 29  4  0  0  0  0
 29 30  4  0  0  0  0
  8 30  4  0  0  0  0
 30 31  4  0  0  0  0
  6 31  4  0  0  0  0
M  END
>  <CdId>
691

>  <Mol Weight>
435.451

>  <Formula>
C21H24F3N5O2

>  <Molecule ChEMBL ID>
CHEMBL4791626

>  <Molecule Max Phase>
None

>  <Molecular Weight>
435.45

>  <#RO5 Violations>
0

>  <AlogP>
3.49

>  <Compound Key>
2

>  <Standard Type>
IC50

>  <Standard Relation>
'>'

>  <Standard Value>
30000.0

>  <Standard Units>
nM

$$$$

  Mrv2114 03112311372D          

 34 38  0  0  1  0            999 V2000
   -8.5737   -2.4750    0.0000 C   0  0  0  0  0  0  0  0  0  0  0  0
   -7.8592   -2.8875    0.0000 O   0  0  0  0  0  0  0  0  0  0  0  0
   -7.1447   -2.4750    0.0000 C   0  0  0  0  0  0  0  0  0  0  0  0
   -7.1447   -1.6500    0.0000 C   0  0  0  0  0  0  0  0  0  0  0  0
   -6.4302   -1.2375    0.0000 C   0  0  0  0  0  0  0  0  0  0  0  0
   -5.7158   -1.6500    0.0000 C   0  0  0  0  0  0  0  0  0  0  0  0
   -5.0013   -1.2375    0.0000 N   0  0  0  0  0  0  0  0  0  0  0  0
   -4.2868   -1.6500    0.0000 C   0  0  0  0  0  0  0  0  0  0  0  0
   -4.2868   -2.4750    0.0000 C   0  0  0  0  0  0  0  0  0  0  0  0
   -3.5724   -2.8875    0.0000 F   0  0  0  0  0  0  0  0  0  0  0  0
   -5.0013   -2.8875    0.0000 C   0  0  0  0  0  0  0  0  0  0  0  0
   -5.0013   -3.7125    0.0000 C   0  0  0  0  0  0  0  0  0  0  0  0
   -4.2868   -4.1250    0.0000 C   0  0  2  0  0  0  0  0  0  0  0  0
   -3.5724   -3.7125    0.0000 O   0  0  0  0  0  0  0  0  0  0  0  0
   -4.2868   -4.9500    0.0000 C   0  0  1  0  0  0  0  0  0  0  0  0
   -3.5724   -5.3625    0.0000 O   0  0  0  0  0  0  0  0  0  0  0  0
   -3.5724   -6.1875    0.0000 C   0  0  0  0  0  0  0  0  0  0  0  0
   -4.2868   -6.6000    0.0000 C   0  0  2  0  0  0  0  0  0  0  0  0
   -4.2868   -7.4250    0.0000 N   0  0  0  0  0  0  0  0  0  0  0  0
   -3.5724   -7.8375    0.0000 C   0  0  0  0  0  0  0  0  0  0  0  0
   -2.8579   -7.4250    0.0000 C   0  0  0  0  0  0  0  0  0  0  0  0
   -2.1434   -7.8375    0.0000 C   0  0  0  0  0  0  0  0  0  0  0  0
   -1.4289   -7.4250    0.0000 C   0  0  0  0  0  0  0  0  0  0  0  0
   -1.4289   -6.6000    0.0000 C   0  0  0  0  0  0  0  0  0  0  0  0
   -2.1434   -6.1875    0.0000 N   0  0  0  0  0  0  0  0  0  0  0  0
   -2.8579   -6.6000    0.0000 N   0  0  0  0  0  0  0  0  0  0  0  0
   -0.7145   -6.1875    0.0000 O   0  0  0  0  0  0  0  0  0  0  0  0
   -0.0000   -6.6000    0.0000 C   0  0  0  0  0  0  0  0  0  0  0  0
   -0.0000   -7.4250    0.0000 C   0  0  0  0  0  0  0  0  0  0  0  0
   -0.7145   -7.8375    0.0000 S   0  0  0  0  0  0  0  0  0  0  0  0
   -5.0013   -6.1875    0.0000 C   0  0  0  0  0  0  0  0  0  0  0  0
   -5.0013   -5.3625    0.0000 O   0  0  0  0  0  0  0  0  0  0  0  0
   -5.7158   -2.4750    0.0000 C   0  0  0  0  0  0  0  0  0  0  0  0
   -6.4302   -2.8875    0.0000 N   0  0  0  0  0  0  0  0  0  0  0  0
  1  2  1  0  0  0  0
  2  3  1  0  0  0  0
  3  4  4  0  0  0  0
  4  5  4  0  0  0  0
  5  6  4  0  0  0  0
  6  7  4  0  0  0  0
  7  8  4  0  0  0  0
  8  9  4  0  0  0  0
  9 10  1  0  0  0  0
  9 11  4  0  0  0  0
 11 12  1  0  0  0  0
 13 12  1  0  0  0  0
 13 14  1  6  0  0  0
 13 15  1  0  0  0  0
 15 16  1  1  0  0  0
 16 17  1  0  0  0  0
 18 17  1  0  0  0  0
 18 19  1  6  0  0  0
 19 20  1  0  0  0  0
 20 21  1  0  0  0  0
 21 22  4  0  0  0  0
 22 23  4  0  0  0  0
 23 24  4  0  0  0  0
 24 25  4  0  0  0  0
 25 26  4  0  0  0  0
 21 26  4  0  0  0  0
 24 27  1  0  0  0  0
 27 28  1  0  0  0  0
 28 29  1  0  0  0  0
 29 30  1  0  0  0  0
 23 30  1  0  0  0  0
 18 31  1  0  0  0  0
 31 32  1  0  0  0  0
 15 32  1  0  0  0  0
 11 33  4  0  0  0  0
  6 33  4  0  0  0  0
 33 34  4  0  0  0  0
  3 34  4  0  0  0  0
M  END
>  <CdId>
692

>  <Mol Weight>
489.52

>  <Formula>
C22H24FN5O5S

>  <Molecule ChEMBL ID>
CHEMBL4852949

>  <Molecule Max Phase>
None

>  <Molecular Weight>
489.53

>  <#RO5 Violations>
1

>  <AlogP>
1.49

>  <Compound Key>
79

>  <Standard Type>
IC50

>  <Standard Relation>
'>'

>  <Standard Value>
10000.0

>  <Standard Units>
nM

$$$$

  Mrv2114 03112311372D          

 52 57  0  0  1  0            999 V2000
   -0.8543   -2.8347    0.0000 C   0  0  0  0  0  0  0  0  0  0  0  0
   -1.4063   -2.2216    0.0000 O   0  0  0  0  0  0  0  0  0  0  0  0
   -1.1514   -1.4370    0.0000 C   0  0  0  0  0  0  0  0  0  0  0  0
   -1.7034   -0.8239    0.0000 C   0  0  0  0  0  0  0  0  0  0  0  0
   -1.4485   -0.0392    0.0000 C   0  0  0  0  0  0  0  0  0  0  0  0
   -2.0005    0.5739    0.0000 F   0  0  0  0  0  0  0  0  0  0  0  0
   -0.6415    0.1323    0.0000 C   0  0  0  0  0  0  0  0  0  0  0  0
   -0.3866    0.9169    0.0000 C   0  0  0  0  0  0  0  0  0  0  0  0
    0.4204    1.0884    0.0000 C   0  0  0  0  0  0  0  0  0  0  0  0
    0.6754    1.8731    0.0000 C   0  0  0  0  0  0  0  0  0  0  0  0
    0.1233    2.4861    0.0000 C   0  0  0  0  0  0  0  0  0  0  0  0
    0.3783    3.2708    0.0000 C   0  0  0  0  0  0  0  0  0  0  0  0
    1.1852    3.4423    0.0000 O   0  0  0  0  0  0  0  0  0  0  0  0
   -0.1738    3.8839    0.0000 O   0  0  0  0  0  0  0  0  0  0  0  0
   -0.6836    2.3146    0.0000 C   0  0  0  0  0  0  0  0  0  0  0  0
   -0.9386    1.5300    0.0000 C   0  0  0  0  0  0  0  0  0  0  0  0
   -1.7456    1.3585    0.0000 C   0  0  0  0  0  0  0  0  0  0  0  0
   -0.0895   -0.4808    0.0000 C   0  0  0  0  0  0  0  0  0  0  0  0
   -0.3444   -1.2654    0.0000 C   0  0  0  0  0  0  0  0  0  0  0  0
    0.2076   -1.8785    0.0000 C   0  0  0  0  0  0  0  0  0  0  0  0
   -0.0473   -2.6631    0.0000 C   0  0  0  0  0  0  0  0  0  0  0  0
    0.5047   -3.2762    0.0000 C   0  0  0  0  0  0  0  0  0  0  0  0
    1.3117   -3.1047    0.0000 C   0  0  0  0  0  0  0  0  0  0  0  0
    1.8637   -3.7178    0.0000 C   0  0  0  0  0  0  0  0  0  0  0  0
    2.4158   -4.3309    0.0000 F   0  0  0  0  0  0  0  0  0  0  0  0
    1.2506   -4.2698    0.0000 F   0  0  0  0  0  0  0  0  0  0  0  0
    2.4768   -3.1658    0.0000 F   0  0  0  0  0  0  0  0  0  0  0  0
    1.5666   -2.3201    0.0000 C   0  0  0  0  0  0  0  0  0  0  0  0
    1.0146   -1.7070    0.0000 C   0  0  0  0  0  0  0  0  0  0  0  0
    1.2695   -0.9224    0.0000 C   0  0  2  0  0  0  0  0  0  0  0  0
    0.7846   -0.2549    0.0000 C   0  0  0  0  0  0  0  0  0  0  0  0
    1.2695    0.4125    0.0000 C   0  0  0  0  0  0  0  0  0  0  0  0
    2.0542    0.1576    0.0000 C   0  0  1  0  0  0  0  0  0  0  0  0
    2.8388    0.4125    0.0000 C   0  0  1  0  0  0  0  0  0  0  0  0
    3.0937    1.1971    0.0000 C   0  0  0  0  0  0  0  0  0  0  0  0
    2.5417    1.8102    0.0000 C   0  0  0  0  0  0  0  0  0  0  0  0
    2.7966    2.5948    0.0000 C   0  0  0  0  0  0  0  0  0  0  0  0
    2.2446    3.2079    0.0000 C   0  0  0  0  0  0  0  0  0  0  0  0
    1.6926    3.8210    0.0000 F   0  0  0  0  0  0  0  0  0  0  0  0
    2.8577    3.7600    0.0000 F   0  0  0  0  0  0  0  0  0  0  0  0
    1.6315    2.6559    0.0000 F   0  0  0  0  0  0  0  0  0  0  0  0
    3.6036    2.7664    0.0000 C   0  0  0  0  0  0  0  0  0  0  0  0
    4.1556    2.1533    0.0000 C   0  0  0  0  0  0  0  0  0  0  0  0
    4.9626    2.3248    0.0000 C   0  0  0  0  0  0  0  0  0  0  0  0
    5.7696    2.4963    0.0000 F   0  0  0  0  0  0  0  0  0  0  0  0
    5.1341    1.5178    0.0000 F   0  0  0  0  0  0  0  0  0  0  0  0
    4.7911    3.1318    0.0000 F   0  0  0  0  0  0  0  0  0  0  0  0
    3.9007    1.3686    0.0000 C   0  0  0  0  0  0  0  0  0  0  0  0
    3.3237   -0.2549    0.0000 O   0  0  0  0  0  0  0  0  0  0  0  0
    2.8388   -0.9224    0.0000 C   0  0  0  0  0  0  0  0  0  0  0  0
    3.0937   -1.7070    0.0000 O   0  0  0  0  0  0  0  0  0  0  0  0
    2.0542   -0.6674    0.0000 N   0  0  0  0  0  0  0  0  0  0  0  0
  1  2  1  0  0  0  0
  2  3  1  0  0  0  0
  3  4  4  0  0  0  0
  4  5  4  0  0  0  0
  5  6  1  0  0  0  0
  5  7  4  0  0  0  0
  7  8  1  0  0  0  0
  8  9  4  0  0  0  0
  9 10  4  0  0  0  0
 10 11  4  0  0  0  0
 11 12  1  0  0  0  0
 12 13  2  0  0  0  0
 12 14  1  0  0  0  0
 11 15  4  0  0  0  0
 15 16  4  0  0  0  0
  8 16  4  0  0  0  0
 16 17  1  0  0  0  0
  7 18  4  0  0  0  0
 18 19  4  0  0  0  0
  3 19  4  0  0  0  0
 19 20  1  0  0  0  0
 20 21  4  0  0  0  0
 21 22  4  0  0  0  0
 22 23  4  0  0  0  0
 23 24  1  0  0  0  0
 24 25  1  0  0  0  0
 24 26  1  0  0  0  0
 24 27  1  0  0  0  0
 23 28  4  0  0  0  0
 28 29  4  0  0  0  0
 20 29  4  0  0  0  0
 30 29  1  6  0  0  0
 30 31  1  0  0  0  0
 31 32  1  0  0  0  0
 33 32  1  0  0  0  0
 33 34  1  0  0  0  0
 34 35  1  1  0  0  0
 35 36  4  0  0  0  0
 36 37  4  0  0  0  0
 37 38  1  0  0  0  0
 38 39  1  0  0  0  0
 38 40  1  0  0  0  0
 38 41  1  0  0  0  0
 37 42  4  0  0  0  0
 42 43  4  0  0  0  0
 43 44  1  0  0  0  0
 44 45  1  0  0  0  0
 44 46  1  0  0  0  0
 44 47  1  0  0  0  0
 43 48  4  0  0  0  0
 35 48  4  0  0  0  0
 34 49  1  0  0  0  0
 49 50  1  0  0  0  0
 50 51  2  0  0  0  0
 50 52  1  0  0  0  0
 30 52  1  0  0  0  0
 33 52  1  1  0  0  0
M  END
>  <CdId>
693

>  <Mol Weight>
741.582

>  <Formula>
C36H25F10NO5

>  <Molecule ChEMBL ID>
CHEMBL3657473

>  <Molecule Max Phase>
None

>  <Molecular Weight>
741.58

>  <#RO5 Violations>
2

>  <AlogP>
10.63

>  <Compound Key>
73

>  <Standard Type>
IC50

>  <Standard Relation>
'='

>  <Standard Value>
8000.0

>  <Standard Units>
nM

$$$$

  Mrv2114 03112311372D          

 28 30  0  0  0  0            999 V2000
    1.1296   -6.3063    0.0000 N   0  0  0  0  0  0  0  0  0  0  0  0
    1.5421   -5.5919    0.0000 C   0  0  0  0  0  0  0  0  0  0  0  0
    1.1296   -4.8774    0.0000 C   0  0  0  0  0  0  0  0  0  0  0  0
    1.5421   -4.1629    0.0000 C   0  0  0  0  0  0  0  0  0  0  0  0
    1.1296   -3.4485    0.0000 C   0  0  0  0  0  0  0  0  0  0  0  0
    1.5421   -2.7340    0.0000 C   0  0  0  0  0  0  0  0  0  0  0  0
    2.3671   -2.7340    0.0000 C   0  0  0  0  0  0  0  0  0  0  0  0
    2.7796   -2.0195    0.0000 S   0  0  0  0  0  0  0  0  0  0  0  0
    3.4941   -2.4320    0.0000 O   0  0  0  0  0  0  0  0  0  0  0  0
    2.0652   -1.6070    0.0000 O   0  0  0  0  0  0  0  0  0  0  0  0
    3.1921   -1.3050    0.0000 N   0  0  0  0  0  0  0  0  0  0  0  0
    4.0171   -1.3050    0.0000 C   0  0  0  0  0  0  0  0  0  0  0  0
    4.4296   -2.0195    0.0000 C   0  0  0  0  0  0  0  0  0  0  0  0
    5.2546   -2.0195    0.0000 C   0  0  0  0  0  0  0  0  0  0  0  0
    5.6671   -2.7340    0.0000 O   0  0  0  0  0  0  0  0  0  0  0  0
    2.7796   -0.5906    0.0000 C   0  0  0  0  0  0  0  0  0  0  0  0
    1.9591   -0.5043    0.0000 C   0  0  0  0  0  0  0  0  0  0  0  0
    1.7876    0.3026    0.0000 C   0  0  0  0  0  0  0  0  0  0  0  0
    2.5021    0.7151    0.0000 N   0  0  0  0  0  0  0  0  0  0  0  0
    3.1152    0.1631    0.0000 N   0  0  0  0  0  0  0  0  0  0  0  0
    3.9222    0.3346    0.0000 C   0  0  0  0  0  0  0  0  0  0  0  0
    4.1771    1.1192    0.0000 C   0  0  0  0  0  0  0  0  0  0  0  0
    4.9841    1.2908    0.0000 C   0  0  0  0  0  0  0  0  0  0  0  0
    5.5361    0.6777    0.0000 C   0  0  0  0  0  0  0  0  0  0  0  0
    5.2812   -0.1069    0.0000 C   0  0  0  0  0  0  0  0  0  0  0  0
    4.4742   -0.2785    0.0000 C   0  0  0  0  0  0  0  0  0  0  0  0
    2.7796   -3.4485    0.0000 C   0  0  0  0  0  0  0  0  0  0  0  0
    2.3671   -4.1629    0.0000 C   0  0  0  0  0  0  0  0  0  0  0  0
  1  2  1  0  0  0  0
  2  3  1  0  0  0  0
  3  4  1  0  0  0  0
  4  5  4  0  0  0  0
  5  6  4  0  0  0  0
  6  7  4  0  0  0  0
  7  8  1  0  0  0  0
  8  9  2  0  0  0  0
  8 10  2  0  0  0  0
  8 11  1  0  0  0  0
 11 12  1  0  0  0  0
 12 13  1  0  0  0  0
 13 14  1  0  0  0  0
 14 15  1  0  0  0  0
 11 16  1  0  0  0  0
 16 17  4  0  0  0  0
 17 18  4  0  0  0  0
 18 19  4  0  0  0  0
 19 20  4  0  0  0  0
 16 20  4  0  0  0  0
 20 21  1  0  0  0  0
 21 22  4  0  0  0  0
 22 23  4  0  0  0  0
 23 24  4  0  0  0  0
 24 25  4  0  0  0  0
 25 26  4  0  0  0  0
 21 26  4  0  0  0  0
  7 27  4  0  0  0  0
 27 28  4  0  0  0  0
  4 28  4  0  0  0  0
M  END
>  <CdId>
694

>  <Mol Weight>
400.5

>  <Formula>
C20H24N4O3S

>  <Molecule ChEMBL ID>
CHEMBL331431

>  <Molecule Max Phase>
None

>  <Molecular Weight>
400.5

>  <#RO5 Violations>
0

>  <AlogP>
1.95

>  <Compound Key>
14

>  <Standard Type>
IC50

>  <Standard Relation>
'>'

>  <Standard Value>
250000.0

>  <Standard Units>
nM

$$$$

  Mrv2114 03112311372D          

 23 25  0  0  0  0            999 V2000
   -0.9851   -3.2777    0.0000 C   0  0  0  0  0  0  0  0  0  0  0  0
   -0.1781   -3.1062    0.0000 N   0  0  0  0  0  0  0  0  0  0  0  0
    0.3739   -3.7192    0.0000 C   0  0  0  0  0  0  0  0  0  0  0  0
    0.0768   -2.3215    0.0000 C   0  0  0  0  0  0  0  0  0  0  0  0
   -0.4752   -1.7084    0.0000 O   0  0  0  0  0  0  0  0  0  0  0  0
    0.8838   -2.1500    0.0000 C   0  0  0  0  0  0  0  0  0  0  0  0
    1.1387   -1.3654    0.0000 N   0  0  0  0  0  0  0  0  0  0  0  0
    0.6538   -0.6979    0.0000 C   0  0  0  0  0  0  0  0  0  0  0  0
    1.1387   -0.0305    0.0000 C   0  0  0  0  0  0  0  0  0  0  0  0
    1.9233   -0.2854    0.0000 C   0  0  0  0  0  0  0  0  0  0  0  0
    2.6378    0.1271    0.0000 N   0  0  0  0  0  0  0  0  0  0  0  0
    3.3523   -0.2854    0.0000 C   0  0  0  0  0  0  0  0  0  0  0  0
    3.3523   -1.1104    0.0000 C   0  0  0  0  0  0  0  0  0  0  0  0
    4.0668   -1.5229    0.0000 C   0  0  0  0  0  0  0  0  0  0  0  0
    4.7812   -1.1104    0.0000 C   0  0  0  0  0  0  0  0  0  0  0  0
    5.4957   -1.5229    0.0000 C   0  0  0  0  0  0  0  0  0  0  0  0
    5.4957   -2.3479    0.0000 C   0  0  0  0  0  0  0  0  0  0  0  0
    6.2102   -2.7604    0.0000 F   0  0  0  0  0  0  0  0  0  0  0  0
    4.7812   -2.7604    0.0000 C   0  0  0  0  0  0  0  0  0  0  0  0
    4.7812   -3.5854    0.0000 F   0  0  0  0  0  0  0  0  0  0  0  0
    4.0668   -2.3479    0.0000 C   0  0  0  0  0  0  0  0  0  0  0  0
    2.6378   -1.5229    0.0000 C   0  0  0  0  0  0  0  0  0  0  0  0
    1.9233   -1.1104    0.0000 C   0  0  0  0  0  0  0  0  0  0  0  0
  1  2  1  0  0  0  0
  2  3  1  0  0  0  0
  2  4  1  0  0  0  0
  4  5  2  0  0  0  0
  4  6  1  0  0  0  0
  6  7  1  0  0  0  0
  7  8  4  0  0  0  0
  8  9  4  0  0  0  0
  9 10  4  0  0  0  0
 10 11  4  0  0  0  0
 11 12  4  0  0  0  0
 12 13  4  0  0  0  0
 13 14  1  0  0  0  0
 14 15  4  0  0  0  0
 15 16  4  0  0  0  0
 16 17  4  0  0  0  0
 17 18  1  0  0  0  0
 17 19  4  0  0  0  0
 19 20  1  0  0  0  0
 19 21  4  0  0  0  0
 14 21  4  0  0  0  0
 13 22  4  0  0  0  0
 22 23  4  0  0  0  0
 10 23  4  0  0  0  0
  7 23  4  0  0  0  0
M  END
>  <CdId>
695

>  <Mol Weight>
315.324

>  <Formula>
C17H15F2N3O

>  <Molecule ChEMBL ID>
CHEMBL4591770

>  <Molecule Max Phase>
None

>  <Molecular Weight>
315.32

>  <#RO5 Violations>
0

>  <AlogP>
3.07

>  <Compound Key>
29

>  <Standard Type>
IC50

>  <Standard Relation>
'>'

>  <Standard Value>
10000.0

>  <Standard Units>
nM

$$$$

  Mrv2114 03112311372D          

 32 36  0  0  0  0            999 V2000
    5.8119   -2.3084    0.0000 C   0  0  0  0  0  0  0  0  0  0  0  0
    5.0975   -2.7209    0.0000 C   0  0  0  0  0  0  0  0  0  0  0  0
    5.0975   -3.5459    0.0000 C   0  0  0  0  0  0  0  0  0  0  0  0
    5.8119   -3.9584    0.0000 C   0  0  0  0  0  0  0  0  0  0  0  0
    6.5264   -3.5459    0.0000 C   0  0  0  0  0  0  0  0  0  0  0  0
    7.2409   -3.9584    0.0000 C   0  0  0  0  0  0  0  0  0  0  0  0
    7.2409   -4.7834    0.0000 C   0  0  0  0  0  0  0  0  0  0  0  0
    6.5264   -5.1959    0.0000 C   0  0  0  0  0  0  0  0  0  0  0  0
    5.8119   -4.7834    0.0000 C   0  0  0  0  0  0  0  0  0  0  0  0
    4.3830   -3.9584    0.0000 N   0  0  0  0  0  0  0  0  0  0  0  0
    3.6685   -3.5459    0.0000 C   0  0  0  0  0  0  0  0  0  0  0  0
    2.9540   -3.9584    0.0000 C   0  0  0  0  0  0  0  0  0  0  0  0
    2.2396   -3.5459    0.0000 C   0  0  0  0  0  0  0  0  0  0  0  0
    2.2396   -2.7209    0.0000 C   0  0  0  0  0  0  0  0  0  0  0  0
    1.5251   -2.3084    0.0000 Br  0  0  0  0  0  0  0  0  0  0  0  0
    2.9540   -2.3084    0.0000 C   0  0  0  0  0  0  0  0  0  0  0  0
    3.6685   -2.7209    0.0000 C   0  0  0  0  0  0  0  0  0  0  0  0
    4.3830   -2.3084    0.0000 C   0  0  0  0  0  0  0  0  0  0  0  0
    4.3830   -1.4834    0.0000 C   0  0  0  0  0  0  0  0  0  0  0  0
    3.6685   -1.0709    0.0000 O   0  0  0  0  0  0  0  0  0  0  0  0
    5.0975   -1.0709    0.0000 N   0  0  0  0  0  0  0  0  0  0  0  0
    5.0975   -0.2459    0.0000 C   0  0  0  0  0  0  0  0  0  0  0  0
    4.3830    0.1666    0.0000 C   0  0  0  0  0  0  0  0  0  0  0  0
    4.3830    0.9916    0.0000 C   0  0  0  0  0  0  0  0  0  0  0  0
    5.0975    1.4041    0.0000 C   0  0  0  0  0  0  0  0  0  0  0  0
    5.0975    2.2291    0.0000 C   0  0  0  0  0  0  0  0  0  0  0  0
    4.3830    2.6416    0.0000 O   0  0  0  0  0  0  0  0  0  0  0  0
    5.8119    2.6416    0.0000 O   0  0  0  0  0  0  0  0  0  0  0  0
    5.8119    0.9916    0.0000 C   0  0  0  0  0  0  0  0  0  0  0  0
    5.8119    0.1666    0.0000 C   0  0  0  0  0  0  0  0  0  0  0  0
    5.2350    0.8541    0.0000 C   0  0  0  0  0  0  0  0  0  0  0  0
    5.2350    0.3041    0.0000 C   0  0  0  0  0  0  0  0  0  0  0  0
  1  2  1  0  0  0  0
  2  3  4  0  0  0  0
  3  4  1  0  0  0  0
  4  5  4  0  0  0  0
  5  6  4  0  0  0  0
  6  7  4  0  0  0  0
  7  8  4  0  0  0  0
  8  9  4  0  0  0  0
  4  9  4  0  0  0  0
  3 10  4  0  0  0  0
 10 11  4  0  0  0  0
 11 12  4  0  0  0  0
 12 13  4  0  0  0  0
 13 14  4  0  0  0  0
 14 15  1  0  0  0  0
 14 16  4  0  0  0  0
 16 17  4  0  0  0  0
 11 17  4  0  0  0  0
 17 18  4  0  0  0  0
  2 18  4  0  0  0  0
 18 19  1  0  0  0  0
 19 20  2  0  0  0  0
 19 21  1  0  0  0  0
 21 22  1  0  0  0  0
 22 23  1  0  0  0  0
 23 24  1  0  0  0  0
 24 25  1  0  0  0  0
 25 26  1  0  0  0  0
 26 27  2  0  0  0  0
 26 28  1  0  0  0  0
 25 29  1  0  0  0  0
 29 30  1  0  0  0  0
 22 30  1  0  0  0  0
 25 31  1  0  0  0  0
 31 32  1  0  0  0  0
 22 32  1  0  0  0  0
M  END
>  <CdId>
696

>  <Mol Weight>
493.401

>  <Formula>
C26H25BrN2O3

>  <Molecule ChEMBL ID>
CHEMBL4789100

>  <Molecule Max Phase>
None

>  <Molecular Weight>
493.4

>  <#RO5 Violations>
1

>  <AlogP>
5.88

>  <Compound Key>
27

>  <Standard Type>
IC50

>  <Standard Relation>
'>'

>  <Standard Value>
10000.0

>  <Standard Units>
nM

$$$$

  Mrv2114 03112311372D          

 33 36  0  0  0  0            999 V2000
   -2.0367   -0.4741    0.0000 O   0  0  0  0  0  0  0  0  0  0  0  0
   -1.3222   -0.0616    0.0000 C   0  0  0  0  0  0  0  0  0  0  0  0
   -0.6078   -0.4741    0.0000 N   0  0  0  0  0  0  0  0  0  0  0  0
   -0.6078   -1.2991    0.0000 C   0  0  0  0  0  0  0  0  0  0  0  0
    0.0597   -1.7840    0.0000 C   0  0  0  0  0  0  0  0  0  0  0  0
   -0.1953   -2.5687    0.0000 N   0  0  0  0  0  0  0  0  0  0  0  0
   -1.0203   -2.5687    0.0000 N   0  0  0  0  0  0  0  0  0  0  0  0
   -1.5052   -3.2361    0.0000 C   0  0  0  0  0  0  0  0  0  0  0  0
   -1.1696   -3.9898    0.0000 C   0  0  0  0  0  0  0  0  0  0  0  0
   -0.3491   -4.0760    0.0000 C   0  0  0  0  0  0  0  0  0  0  0  0
   -0.0136   -4.8297    0.0000 C   0  0  0  0  0  0  0  0  0  0  0  0
   -0.4985   -5.4971    0.0000 C   0  0  0  0  0  0  0  0  0  0  0  0
   -0.1630   -6.2508    0.0000 C   0  0  0  0  0  0  0  0  0  0  0  0
    0.1726   -7.0045    0.0000 F   0  0  0  0  0  0  0  0  0  0  0  0
    0.5907   -5.9152    0.0000 F   0  0  0  0  0  0  0  0  0  0  0  0
   -0.9166   -6.5863    0.0000 F   0  0  0  0  0  0  0  0  0  0  0  0
   -1.3190   -5.4109    0.0000 C   0  0  0  0  0  0  0  0  0  0  0  0
   -1.6546   -4.6572    0.0000 C   0  0  0  0  0  0  0  0  0  0  0  0
   -2.4750   -4.5710    0.0000 C   0  0  0  0  0  0  0  0  0  0  0  0
   -3.2955   -4.4847    0.0000 F   0  0  0  0  0  0  0  0  0  0  0  0
   -2.3888   -3.7505    0.0000 F   0  0  0  0  0  0  0  0  0  0  0  0
   -2.5613   -5.3914    0.0000 F   0  0  0  0  0  0  0  0  0  0  0  0
   -1.2752   -1.7840    0.0000 C   0  0  0  0  0  0  0  0  0  0  0  0
   -1.3222    0.7634    0.0000 C   0  0  0  0  0  0  0  0  0  0  0  0
   -1.9897    1.2483    0.0000 C   0  0  0  0  0  0  0  0  0  0  0  0
   -1.7347    2.0329    0.0000 C   0  0  0  0  0  0  0  0  0  0  0  0
   -2.2197    2.7004    0.0000 C   0  0  0  0  0  0  0  0  0  0  0  0
   -3.0447    2.7004    0.0000 C   0  0  0  0  0  0  0  0  0  0  0  0
   -3.2996    3.4850    0.0000 C   0  0  0  0  0  0  0  0  0  0  0  0
   -2.6322    3.9699    0.0000 C   0  0  0  0  0  0  0  0  0  0  0  0
   -1.9647    3.4850    0.0000 O   0  0  0  0  0  0  0  0  0  0  0  0
   -0.9097    2.0329    0.0000 O   0  0  0  0  0  0  0  0  0  0  0  0
   -0.6548    1.2483    0.0000 N   0  0  0  0  0  0  0  0  0  0  0  0
  1  2  2  0  0  0  0
  2  3  1  0  0  0  0
  3  4  1  0  0  0  0
  4  5  4  0  0  0  0
  5  6  4  0  0  0  0
  6  7  4  0  0  0  0
  7  8  1  0  0  0  0
  8  9  1  0  0  0  0
  9 10  4  0  0  0  0
 10 11  4  0  0  0  0
 11 12  4  0  0  0  0
 12 13  1  0  0  0  0
 13 14  1  0  0  0  0
 13 15  1  0  0  0  0
 13 16  1  0  0  0  0
 12 17  4  0  0  0  0
 17 18  4  0  0  0  0
  9 18  4  0  0  0  0
 18 19  1  0  0  0  0
 19 20  1  0  0  0  0
 19 21  1  0  0  0  0
 19 22  1  0  0  0  0
  7 23  4  0  0  0  0
  4 23  4  0  0  0  0
  2 24  1  0  0  0  0
 24 25  4  0  0  0  0
 25 26  4  0  0  0  0
 26 27  1  0  0  0  0
 27 28  4  0  0  0  0
 28 29  4  0  0  0  0
 29 30  4  0  0  0  0
 30 31  4  0  0  0  0
 27 31  4  0  0  0  0
 26 32  4  0  0  0  0
 32 33  4  0  0  0  0
 24 33  4  0  0  0  0
M  END
>  <CdId>
697

>  <Mol Weight>
470.331

>  <Formula>
C20H12F6N4O3

>  <Molecule ChEMBL ID>
CHEMBL5073329

>  <Molecule Max Phase>
None

>  <Molecular Weight>
470.33

>  <#RO5 Violations>
1

>  <AlogP>
5.47

>  <Compound Key>
Ceapin-A7

>  <Standard Type>
IC50

>  <Standard Relation>
'='

>  <Standard Value>
960.0

>  <Standard Units>
nM

$$$$

  Mrv2114 03112311372D          

 34 37  0  0  1  0            999 V2000
    0.1067   -0.0616    0.0000 C   0  0  0  0  0  0  0  0  0  0  0  0
   -0.6078   -0.4741    0.0000 C   0  0  1  0  0  0  0  0  0  0  0  0
   -1.3222   -0.0616    0.0000 C   0  0  0  0  0  0  0  0  0  0  0  0
   -2.0367   -0.4741    0.0000 C   0  0  0  0  0  0  0  0  0  0  0  0
   -2.7512   -0.0616    0.0000 C   0  0  0  0  0  0  0  0  0  0  0  0
   -2.7512    0.7634    0.0000 C   0  0  0  0  0  0  0  0  0  0  0  0
   -3.4656    1.1759    0.0000 C   0  0  0  0  0  0  0  0  0  0  0  0
   -4.1801    1.5884    0.0000 F   0  0  0  0  0  0  0  0  0  0  0  0
   -3.8781    0.4614    0.0000 F   0  0  0  0  0  0  0  0  0  0  0  0
   -3.0531    1.8904    0.0000 F   0  0  0  0  0  0  0  0  0  0  0  0
   -2.0367    1.1759    0.0000 C   0  0  0  0  0  0  0  0  0  0  0  0
   -1.3222    0.7634    0.0000 C   0  0  0  0  0  0  0  0  0  0  0  0
   -0.6078    1.1759    0.0000 C   0  0  0  0  0  0  0  0  0  0  0  0
    0.1067    1.5884    0.0000 F   0  0  0  0  0  0  0  0  0  0  0  0
   -0.1953    0.4614    0.0000 F   0  0  0  0  0  0  0  0  0  0  0  0
   -1.0203    1.8904    0.0000 F   0  0  0  0  0  0  0  0  0  0  0  0
   -0.6078   -1.2991    0.0000 N   0  0  0  0  0  0  0  0  0  0  0  0
    0.0597   -1.7840    0.0000 C   0  0  0  0  0  0  0  0  0  0  0  0
   -0.1953   -2.5687    0.0000 C   0  0  0  0  0  0  0  0  0  0  0  0
    0.2897   -3.2361    0.0000 N   0  0  0  0  0  0  0  0  0  0  0  0
    1.1101   -3.1499    0.0000 C   0  0  0  0  0  0  0  0  0  0  0  0
    1.4457   -2.3962    0.0000 O   0  0  0  0  0  0  0  0  0  0  0  0
    1.5951   -3.8173    0.0000 C   0  0  0  0  0  0  0  0  0  0  0  0
    2.4201   -3.8173    0.0000 C   0  0  0  0  0  0  0  0  0  0  0  0
    2.6750   -4.6019    0.0000 C   0  0  0  0  0  0  0  0  0  0  0  0
    3.4596   -4.8569    0.0000 C   0  0  0  0  0  0  0  0  0  0  0  0
    4.1271   -4.3719    0.0000 C   0  0  0  0  0  0  0  0  0  0  0  0
    4.7945   -4.8569    0.0000 C   0  0  0  0  0  0  0  0  0  0  0  0
    4.5396   -5.6415    0.0000 C   0  0  0  0  0  0  0  0  0  0  0  0
    3.7146   -5.6415    0.0000 O   0  0  0  0  0  0  0  0  0  0  0  0
    2.0076   -5.0868    0.0000 O   0  0  0  0  0  0  0  0  0  0  0  0
    1.3401   -4.6019    0.0000 N   0  0  0  0  0  0  0  0  0  0  0  0
   -1.0203   -2.5687    0.0000 C   0  0  0  0  0  0  0  0  0  0  0  0
   -1.2752   -1.7840    0.0000 N   0  0  0  0  0  0  0  0  0  0  0  0
  2  1  1  6  0  0  0
  2  3  1  0  0  0  0
  3  4  4  0  0  0  0
  4  5  4  0  0  0  0
  5  6  4  0  0  0  0
  6  7  1  0  0  0  0
  7  8  1  0  0  0  0
  7  9  1  0  0  0  0
  7 10  1  0  0  0  0
  6 11  4  0  0  0  0
 11 12  4  0  0  0  0
  3 12  4  0  0  0  0
 12 13  1  0  0  0  0
 13 14  1  0  0  0  0
 13 15  1  0  0  0  0
 13 16  1  0  0  0  0
  2 17  1  0  0  0  0
 17 18  4  0  0  0  0
 18 19  4  0  0  0  0
 19 20  1  0  0  0  0
 20 21  1  0  0  0  0
 21 22  2  0  0  0  0
 21 23  1  0  0  0  0
 23 24  4  0  0  0  0
 24 25  4  0  0  0  0
 25 26  1  0  0  0  0
 26 27  4  0  0  0  0
 27 28  4  0  0  0  0
 28 29  4  0  0  0  0
 29 30  4  0  0  0  0
 26 30  4  0  0  0  0
 25 31  4  0  0  0  0
 31 32  4  0  0  0  0
 23 32  4  0  0  0  0
 19 33  4  0  0  0  0
 33 34  4  0  0  0  0
 17 34  4  0  0  0  0
M  END
>  <CdId>
698

>  <Mol Weight>
484.358

>  <Formula>
C21H14F6N4O3

>  <Molecule ChEMBL ID>
CHEMBL5076457

>  <Molecule Max Phase>
None

>  <Molecular Weight>
484.36

>  <#RO5 Violations>
1

>  <AlogP>
6.03

>  <Compound Key>
Enantiomer A of Example S6 (Cpd 7)

>  <Standard Type>
IC50

>  <Standard Relation>
'='

>  <Standard Value>
1350.0

>  <Standard Units>
nM

$$$$

  Mrv2114 03112311372D          

 38 41  0  0  1  0            999 V2000
    6.2102    1.9354    0.0000 C   0  0  0  0  0  0  0  0  0  0  0  0
    5.4957    2.3479    0.0000 C   0  0  0  0  0  0  0  0  0  0  0  0
    4.7812    1.9354    0.0000 N   0  0  0  0  0  0  0  0  0  0  0  0
    4.0668    2.3479    0.0000 C   0  0  0  0  0  0  0  0  0  0  0  0
    4.4048    3.0824    0.0000 O   0  0  0  0  0  0  0  0  0  0  0  0
    3.3523    1.9354    0.0000 N   0  0  0  0  0  0  0  0  0  0  0  0
    3.3523    1.1104    0.0000 C   0  0  0  0  0  0  0  0  0  0  0  0
    4.0668    0.6979    0.0000 O   0  0  0  0  0  0  0  0  0  0  0  0
    2.6378    0.6979    0.0000 N   0  0  0  0  0  0  0  0  0  0  0  0
    2.6378   -0.1271    0.0000 C   0  0  0  0  0  0  0  0  0  0  0  0
    1.9233   -0.5396    0.0000 C   0  0  0  0  0  0  0  0  0  0  0  0
    1.9233   -1.3646    0.0000 C   0  0  0  0  0  0  0  0  0  0  0  0
    2.6378   -1.7771    0.0000 C   0  0  0  0  0  0  0  0  0  0  0  0
    3.3523   -1.3646    0.0000 C   0  0  0  0  0  0  0  0  0  0  0  0
    4.0668   -1.7771    0.0000 C   0  0  0  0  0  0  0  0  0  0  0  0
    4.7812   -2.1896    0.0000 F   0  0  0  0  0  0  0  0  0  0  0  0
    4.4793   -1.0626    0.0000 F   0  0  0  0  0  0  0  0  0  0  0  0
    3.6543   -2.4915    0.0000 F   0  0  0  0  0  0  0  0  0  0  0  0
    3.3523   -0.5396    0.0000 C   0  0  0  0  0  0  0  0  0  0  0  0
    1.9233    1.1104    0.0000 C   0  0  0  0  0  0  0  0  0  0  0  0
    1.9233    1.9354    0.0000 C   0  0  0  0  0  0  0  0  0  0  0  0
    1.1387    2.1904    0.0000 C   0  0  0  0  0  0  0  0  0  0  0  0
    0.8838    2.9750    0.0000 O   0  0  0  0  0  0  0  0  0  0  0  0
    0.6538    1.5229    0.0000 C   0  0  0  0  0  0  0  0  0  0  0  0
    1.1387    0.8555    0.0000 C   0  0  0  0  0  0  0  0  0  0  0  0
    2.6378    2.3479    0.0000 C   0  0  1  0  0  0  0  0  0  0  0  0
    2.6378    3.1729    0.0000 C   0  0  0  0  0  0  0  0  0  0  0  0
    1.9233    3.5854    0.0000 C   0  0  0  0  0  0  0  0  0  0  0  0
    1.9233    4.4104    0.0000 C   0  0  0  0  0  0  0  0  0  0  0  0
    2.6378    4.8229    0.0000 C   0  0  0  0  0  0  0  0  0  0  0  0
    2.6378    5.6479    0.0000 C   0  0  0  0  0  0  0  0  0  0  0  0
    2.6378    6.4729    0.0000 N   0  0  0  0  0  0  0  0  0  0  0  0
    3.3523    4.4104    0.0000 C   0  0  0  0  0  0  0  0  0  0  0  0
    3.3523    3.5854    0.0000 C   0  0  0  0  0  0  0  0  0  0  0  0
    4.0668    3.1729    0.0000 S   0  0  0  0  0  0  0  0  0  0  0  0
    4.7812    2.7604    0.0000 C   0  0  0  0  0  0  0  0  0  0  0  0
    3.6543    2.4585    0.0000 O   0  0  0  0  0  0  0  0  0  0  0  0
    4.4793    3.8874    0.0000 O   0  0  0  0  0  0  0  0  0  0  0  0
  1  2  1  0  0  0  0
  2  3  1  0  0  0  0
  3  4  1  0  0  0  0
  4  5  2  0  0  0  0
  4  6  1  0  0  0  0
  6  7  1  0  0  0  0
  7  8  2  0  0  0  0
  7  9  1  0  0  0  0
  9 10  1  0  0  0  0
 10 11  4  0  0  0  0
 11 12  4  0  0  0  0
 12 13  4  0  0  0  0
 13 14  4  0  0  0  0
 14 15  1  0  0  0  0
 15 16  1  0  0  0  0
 15 17  1  0  0  0  0
 15 18  1  0  0  0  0
 14 19  4  0  0  0  0
 10 19  4  0  0  0  0
  9 20  1  0  0  0  0
 20 21  2  0  0  0  0
 21 22  1  0  0  0  0
 22 23  2  0  0  0  0
 22 24  1  0  0  0  0
 24 25  1  0  0  0  0
 20 25  1  0  0  0  0
 26 21  1  0  0  0  0
 26  6  1  0  0  0  0
 26 27  1  1  0  0  0
 27 28  4  0  0  0  0
 28 29  4  0  0  0  0
 29 30  4  0  0  0  0
 30 31  1  0  0  0  0
 31 32  3  0  0  0  0
 30 33  4  0  0  0  0
 33 34  4  0  0  0  0
 27 34  4  0  0  0  0
 34 35  1  0  0  0  0
 35 36  1  0  0  0  0
 35 37  2  0  0  0  0
 35 38  2  0  0  0  0
M  END
>  <CdId>
699

>  <Mol Weight>
546.52

>  <Formula>
C25H21F3N4O5S

>  <Molecule ChEMBL ID>
CHEMBL4110666

>  <Molecule Max Phase>
None

>  <Molecular Weight>
546.53

>  <#RO5 Violations>
1

>  <AlogP>
4.31

>  <Compound Key>
BDBM211887

>  <Standard Type>
IC50

>  <Standard Relation>
'>'

>  <Standard Value>
50000.0

>  <Standard Units>
nM

$$$$

  Mrv2114 03112311372D          

123135  0  0  1  0            999 V2000
    6.7125    0.8897    0.0000 C   0  0  0  0  0  0  0  0  0  0  0  0
    6.0613    1.3963    0.0000 C   0  0  0  0  0  0  0  0  0  0  0  0
    5.2970    1.0857    0.0000 C   0  0  2  0  0  0  0  0  0  0  0  0
    5.1839    0.2685    0.0000 C   0  0  0  0  0  0  0  0  0  0  0  0
    4.6459    1.5923    0.0000 C   0  0  1  0  0  0  0  0  0  0  0  0
    3.8816    1.2816    0.0000 O   0  0  0  0  0  0  0  0  0  0  0  0
    3.2304    1.7882    0.0000 C   0  0  2  0  0  0  0  0  0  0  0  0
    3.3436    2.6054    0.0000 C   0  0  0  0  0  0  0  0  0  0  0  0
    4.1079    2.9161    0.0000 C   0  0  0  0  0  0  0  0  0  0  0  0
    4.7590    2.4095    0.0000 C   0  0  2  0  0  0  0  0  0  0  0  0
    5.5233    2.7201    0.0000 C   0  0  0  0  0  0  0  0  0  0  0  0
    2.5793    2.2948    0.0000 C   0  0  0  0  0  0  0  0  0  0  0  0
    1.8150    1.9842    0.0000 C   0  0  2  0  0  0  0  0  0  0  0  0
    1.7019    1.1670    0.0000 C   0  0  0  0  0  0  0  0  0  0  0  0
    2.3530    0.6604    0.0000 C   0  0  1  0  0  0  0  0  0  0  0  0
    2.2399   -0.1568    0.0000 C   0  0  0  0  0  0  0  0  0  0  0  0
    1.4756   -0.4674    0.0000 C   0  0  0  0  0  0  0  0  0  0  0  0
    1.3624   -1.2846    0.0000 C   0  0  0  0  0  0  0  0  0  0  0  0
    2.0136   -1.7912    0.0000 C   0  0  0  0  0  0  0  0  0  0  0  0
    0.5981   -1.5952    0.0000 C   0  0  1  0  0  0  0  0  0  0  0  0
    0.4850   -2.4124    0.0000 O   0  0  0  0  0  0  0  0  0  0  0  0
   -0.2793   -2.7231    0.0000 C   0  0  1  0  0  0  0  0  0  0  0  0
   -0.3924   -3.5403    0.0000 C   0  0  0  0  0  0  0  0  0  0  0  0
   -1.1567   -3.8509    0.0000 C   0  0  2  0  0  0  0  0  0  0  0  0
   -1.2699   -4.6681    0.0000 O   0  0  0  0  0  0  0  0  0  0  0  0
   -2.0341   -4.9787    0.0000 C   0  0  0  0  0  0  0  0  0  0  0  0
   -1.8079   -3.3443    0.0000 C   0  0  1  0  0  0  0  0  0  0  0  0
   -2.5722   -3.6549    0.0000 O   0  0  0  0  0  0  0  0  0  0  0  0
   -3.2233   -3.1483    0.0000 C   0  0  1  0  0  0  0  0  0  0  0  0
   -3.9876   -3.4590    0.0000 C   0  0  0  0  0  0  0  0  0  0  0  0
   -4.6387   -2.9524    0.0000 C   0  0  2  0  0  0  0  0  0  0  0  0
   -5.4030   -3.2630    0.0000 O   0  0  0  0  0  0  0  0  0  0  0  0
   -5.5162   -4.0802    0.0000 C   0  0  0  0  0  0  0  0  0  0  0  0
   -4.5256   -2.1352    0.0000 C   0  0  1  0  0  0  0  0  0  0  0  0
   -5.1768   -1.6286    0.0000 O   0  0  0  0  0  0  0  0  0  0  0  0
   -3.7613   -1.8246    0.0000 C   0  0  2  0  0  0  0  0  0  0  0  0
   -3.6482   -1.0074    0.0000 C   0  0  0  0  0  0  0  0  0  0  0  0
   -3.1102   -2.3311    0.0000 O   0  0  0  0  0  0  0  0  0  0  0  0
   -1.6947   -2.5271    0.0000 C   0  0  2  0  0  0  0  0  0  0  0  0
   -2.3459   -2.0205    0.0000 C   0  0  0  0  0  0  0  0  0  0  0  0
   -0.9304   -2.2165    0.0000 O   0  0  0  0  0  0  0  0  0  0  0  0
   -0.0530   -1.0887    0.0000 C   0  0  1  0  0  0  0  0  0  0  0  0
   -0.8173   -1.3993    0.0000 C   0  0  0  0  0  0  0  0  0  0  0  0
    0.0601   -0.2715    0.0000 C   0  0  0  0  0  0  0  0  0  0  0  0
   -0.5910    0.2351    0.0000 C   0  0  0  0  0  0  0  0  0  0  0  0
   -0.4779    1.0523    0.0000 C   0  0  0  0  0  0  0  0  0  0  0  0
   -1.1290    1.5589    0.0000 C   0  0  0  0  0  0  0  0  0  0  0  0
   -1.9519    1.4997    0.0000 C   0  0  0  0  0  0  0  0  0  0  0  0
   -2.2625    2.2640    0.0000 O   0  0  0  0  0  0  0  0  0  0  0  0
   -1.6316    2.7956    0.0000 C   0  0  2  0  0  0  0  0  0  0  0  0
   -1.6045    3.6201    0.0000 C   0  0  2  0  0  0  0  0  0  0  0  0
   -2.3051    4.0559    0.0000 O   0  0  0  0  0  0  0  0  0  0  0  0
   -0.8769    4.0089    0.0000 C   0  0  0  0  0  0  0  0  0  0  0  0
   -0.8498    4.8335    0.0000 C   0  0  0  0  0  0  0  0  0  0  0  0
   -0.1764    3.5732    0.0000 C   0  0  0  0  0  0  0  0  0  0  0  0
   -0.2516    2.6867    0.0000 C   0  0  1  0  0  0  0  0  0  0  0  0
    0.3996    2.1802    0.0000 C   0  0  0  0  0  0  0  0  0  0  0  0
    0.2864    1.3630    0.0000 O   0  0  0  0  0  0  0  0  0  0  0  0
    1.1638    2.4908    0.0000 O   0  0  0  0  0  0  0  0  0  0  0  0
   -1.0159    2.3761    0.0000 C   0  0  2  0  0  0  0  0  0  0  0  0
   -0.9286    3.1965    0.0000 O   0  0  0  0  0  0  0  0  0  0  0  0
    3.1173    0.9710    0.0000 O   0  0  0  0  0  0  0  0  0  0  0  0
    9.0696    5.0445    0.0000 C   0  0  0  0  0  0  0  0  0  0  0  0
    9.7174    5.5554    0.0000 O   0  0  0  0  0  0  0  0  0  0  0  0
   10.4837    5.2498    0.0000 C   0  0  1  0  0  0  0  0  0  0  0  0
   10.6023    4.4334    0.0000 C   0  0  0  0  0  0  0  0  0  0  0  0
   11.3686    4.1278    0.0000 C   0  0  2  0  0  0  0  0  0  0  0  0
   11.4871    3.3114    0.0000 O   0  0  0  0  0  0  0  0  0  0  0  0
   12.2534    3.0058    0.0000 C   0  0  1  0  0  0  0  0  0  0  0  0
   12.9012    3.5167    0.0000 C   0  0  2  0  0  0  0  0  0  0  0  0
   12.7827    4.3331    0.0000 C   0  0  0  0  0  0  0  0  0  0  0  0
   13.6676    3.2111    0.0000 O   0  0  0  0  0  0  0  0  0  0  0  0
   13.7861    2.3947    0.0000 C   0  0  1  0  0  0  0  0  0  0  0  0
   14.5524    2.0891    0.0000 O   0  0  0  0  0  0  0  0  0  0  0  0
   14.6710    1.2727    0.0000 C   0  0  2  0  0  0  0  0  0  0  0  0
   15.4373    0.9671    0.0000 C   0  0  0  0  0  0  0  0  0  0  0  0
   16.0851    1.4780    0.0000 C   0  0  0  0  0  0  0  0  0  0  0  0
   15.5558    0.1507    0.0000 C   0  0  0  0  0  0  0  0  0  0  0  0
   16.3221   -0.1549    0.0000 C   0  0  0  0  0  0  0  0  0  0  0  0
   16.4407   -0.9714    0.0000 C   0  0  2  0  0  0  0  0  0  0  0  0
   15.7929   -1.4822    0.0000 C   0  0  0  0  0  0  0  0  0  0  0  0
   15.9114   -2.2987    0.0000 C   0  0  1  0  0  0  0  0  0  0  0  0
   16.6777   -2.6042    0.0000 C   0  0  0  0  0  0  0  0  0  0  0  0
   17.3255   -2.0934    0.0000 C   0  0  1  0  0  0  0  0  0  0  0  0
   17.9733   -1.5825    0.0000 C   0  0  0  0  0  0  0  0  0  0  0  0
   18.7397   -1.8881    0.0000 C   0  0  0  0  0  0  0  0  0  0  0  0
   18.8582   -2.7045    0.0000 C   0  0  2  0  0  0  0  0  0  0  0  0
   19.6245   -3.0101    0.0000 C   0  0  0  0  0  0  0  0  0  0  0  0
   18.2104   -3.2154    0.0000 C   0  0  1  0  0  0  0  0  0  0  0  0
   18.3289   -4.0318    0.0000 C   0  0  0  0  0  0  0  0  0  0  0  0
   17.6811   -4.5427    0.0000 C   0  0  0  0  0  0  0  0  0  0  0  0
   19.0953   -4.3374    0.0000 C   0  0  0  0  0  0  0  0  0  0  0  0
   17.4441   -2.9098    0.0000 O   0  0  0  0  0  0  0  0  0  0  0  0
   17.2070   -1.2769    0.0000 O   0  0  0  0  0  0  0  0  0  0  0  0
   15.2636   -2.8095    0.0000 O   0  0  0  0  0  0  0  0  0  0  0  0
   14.4973   -2.5040    0.0000 C   0  0  0  0  0  0  0  0  0  0  0  0
   14.3788   -1.6875    0.0000 O   0  0  0  0  0  0  0  0  0  0  0  0
   13.8495   -3.0148    0.0000 C   0  0  2  0  0  0  0  0  0  0  0  0
   13.8821   -3.8392    0.0000 C   0  0  0  0  0  0  0  0  0  0  0  0
   13.1844   -4.2796    0.0000 C   0  0  0  0  0  0  0  0  0  0  0  0
   13.2170   -5.1039    0.0000 C   0  0  0  0  0  0  0  0  0  0  0  0
   12.4542   -3.8956    0.0000 C   0  0  1  0  0  0  0  0  0  0  0  0
   11.7566   -4.3359    0.0000 O   0  0  0  0  0  0  0  0  0  0  0  0
   12.4217   -3.0712    0.0000 C   0  0  1  0  0  0  0  0  0  0  0  0
   11.7873   -2.5438    0.0000 O   0  0  0  0  0  0  0  0  0  0  0  0
   12.0929   -1.7775    0.0000 C   0  0  0  0  0  0  0  0  0  0  0  0
   12.9647   -1.8928    0.0000 C   0  0  0  0  0  0  0  0  0  0  0  0
   13.6124   -1.3820    0.0000 C   0  0  0  0  0  0  0  0  0  0  0  0
   13.4939   -0.5655    0.0000 C   0  0  0  0  0  0  0  0  0  0  0  0
   14.1417   -0.0547    0.0000 C   0  0  0  0  0  0  0  0  0  0  0  0
   14.0232    0.7618    0.0000 C   0  0  2  0  0  0  0  0  0  0  0  0
   13.2568    1.0674    0.0000 C   0  0  0  0  0  0  0  0  0  0  0  0
   13.0832   -2.7093    0.0000 C   0  0  1  0  0  0  0  0  0  0  0  0
   13.1332   -3.5328    0.0000 O   0  0  0  0  0  0  0  0  0  0  0  0
   13.1383    1.8838    0.0000 C   0  0  0  0  0  0  0  0  0  0  0  0
   12.3720    2.1894    0.0000 C   0  0  2  0  0  0  0  0  0  0  0  0
   11.7242    1.6785    0.0000 O   0  0  0  0  0  0  0  0  0  0  0  0
   10.9579    1.9840    0.0000 C   0  0  0  0  0  0  0  0  0  0  0  0
   12.0164    4.6387    0.0000 O   0  0  0  0  0  0  0  0  0  0  0  0
   11.8978    5.4551    0.0000 C   0  0  1  0  0  0  0  0  0  0  0  0
   12.5456    5.9660    0.0000 C   0  0  0  0  0  0  0  0  0  0  0  0
   11.1315    5.7607    0.0000 C   0  0  2  0  0  0  0  0  0  0  0  0
   11.0130    6.5771    0.0000 O   0  0  0  0  0  0  0  0  0  0  0  0
  1  2  1  0  0  0  0
  3  2  1  0  0  0  0
  3  4  1  6  0  0  0
  5  3  1  1  0  0  0
  5  6  1  0  0  0  0
  7  6  1  1  0  0  0
  7  8  1  0  0  0  0
  8  9  1  0  0  0  0
 10  9  1  0  0  0  0
  5 10  1  0  0  0  0
 10 11  1  6  0  0  0
  7 12  1  0  0  0  0
 13 12  1  0  0  0  0
 13 14  1  6  0  0  0
 15 14  1  6  0  0  0
 15 16  1  0  0  0  0
 17 16  1  4  0  0  0
 17 18  2  0  0  0  0
 18 19  1  0  0  0  0
 20 18  1  0  0  0  0
 20 21  1  1  0  0  0
 22 21  1  1  0  0  0
 22 23  1  0  0  0  0
 24 23  1  0  0  0  0
 24 25  1  6  0  0  0
 25 26  1  0  0  0  0
 27 24  1  0  0  0  0
 27 28  1  1  0  0  0
 29 28  1  1  0  0  0
 29 30  1  0  0  0  0
 31 30  1  0  0  0  0
 31 32  1  6  0  0  0
 32 33  1  0  0  0  0
 34 31  1  0  0  0  0
 34 35  1  1  0  0  0
 34 36  1  0  0  0  0
 36 37  1  6  0  0  0
 36 38  1  0  0  0  0
 29 38  1  0  0  0  0
 27 39  1  0  0  0  0
 39 40  1  6  0  0  0
 39 41  1  0  0  0  0
 22 41  1  0  0  0  0
 20 42  1  0  0  0  0
 42 43  1  1  0  0  0
 42 44  1  0  0  0  0
 44 45  2  0  0  0  0
 46 45  1  4  0  0  0
 46 47  2  0  0  0  0
 47 48  1  0  0  0  0
 48 49  1  0  0  0  0
 50 49  1  6  0  0  0
 50 51  1  0  0  0  0
 51 52  1  6  0  0  0
 51 53  1  0  0  0  0
 53 54  1  0  0  0  0
 53 55  2  0  0  0  0
 56 55  1  1  0  0  0
 56 57  1  0  0  0  0
 57 58  2  0  0  0  0
 57 59  1  0  0  0  0
 13 59  1  0  0  0  0
 60 56  1  0  0  0  0
 60 47  1  0  0  0  0
 50 60  1  0  0  0  0
 60 61  1  1  0  0  0
 15 62  1  0  0  0  0
  7 62  1  0  0  0  0
 63 64  1  0  0  0  0
 65 64  1  6  0  0  0
 65 66  1  0  0  0  0
 67 66  1  0  0  0  0
 67 68  1  1  0  0  0
 69 68  1  1  0  0  0
 69 70  1  0  0  0  0
 70 71  1  6  0  0  0
 70 72  1  0  0  0  0
 73 72  1  0  0  0  0
 73 74  1  1  0  0  0
 75 74  1  6  0  0  0
 75 76  1  0  0  0  0
 76 77  1  0  0  0  0
 76 78  2  0  0  0  0
 78 79  1  0  0  0  0
 80 79  1  0  0  0  0
 80 81  1  1  0  0  0
 82 81  1  1  0  0  0
 82 83  1  0  0  0  0
 84 83  1  0  0  0  0
 84 85  1  0  0  0  0
 85 86  1  0  0  0  0
 87 86  1  0  0  0  0
 87 88  1  6  0  0  0
 87 89  1  0  0  0  0
 89 90  1  1  0  0  0
 90 91  1  0  0  0  0
 90 92  1  0  0  0  0
 89 93  1  0  0  0  0
 84 93  1  6  0  0  0
 84 94  1  0  0  0  0
 80 94  1  0  0  0  0
 82 95  1  0  0  0  0
 95 96  1  0  0  0  0
 96 97  2  0  0  0  0
 98 96  1  0  0  0  0
 98 99  1  6  0  0  0
 99100  2  0  0  0  0
100101  1  0  0  0  0
102100  1  0  0  0  0
102103  1  1  0  0  0
104102  1  0  0  0  0
104105  1  1  0  0  0
105106  1  0  0  0  0
106107  1  0  0  0  0
107108  2  0  0  0  0
108109  1  4  0  0  0
109110  2  3  0  0  0
111110  1  0  0  0  0
 75111  1  0  0  0  0
111112  1  6  0  0  0
113107  1  0  0  0  0
104113  1  0  0  0  0
113 98  1  0  0  0  0
113114  1  6  0  0  0
 73115  1  0  0  0  0
116115  1  0  0  0  0
 69116  1  0  0  0  0
116117  1  6  0  0  0
117118  1  0  0  0  0
 67119  1  0  0  0  0
120119  1  0  0  0  0
120121  1  6  0  0  0
122120  1  0  0  0  0
122 65  1  0  0  0  0
122123  1  1  0  0  0
M  END
>  <CdId>
700

>  <Mol Weight>
1736.185

>  <Formula>
C95H146O28

>  <Molecule ChEMBL ID>
CHEMBL1200633

>  <Molecule Name>
IVERMECTIN

>  <Molecule Max Phase>
4

>  <Molecular Weight>
1736.18

>  <#RO5 Violations>
None

>  <AlogP>
None

>  <Compound Key>
Ivermectin

>  <Standard Type>
IC50

>  <Standard Relation>
'>'

>  <Standard Value>
30000.0

>  <Standard Units>
nM

$$$$

  Mrv2114 03112311372D          

 23 25  0  0  0  0            999 V2000
   -0.9851   -3.2777    0.0000 C   0  0  0  0  0  0  0  0  0  0  0  0
   -0.1781   -3.1062    0.0000 N   0  0  0  0  0  0  0  0  0  0  0  0
    0.3739   -3.7192    0.0000 C   0  0  0  0  0  0  0  0  0  0  0  0
    0.0768   -2.3215    0.0000 C   0  0  0  0  0  0  0  0  0  0  0  0
   -0.4752   -1.7084    0.0000 O   0  0  0  0  0  0  0  0  0  0  0  0
    0.8838   -2.1500    0.0000 C   0  0  0  0  0  0  0  0  0  0  0  0
    1.1387   -1.3654    0.0000 N   0  0  0  0  0  0  0  0  0  0  0  0
    0.6538   -0.6979    0.0000 C   0  0  0  0  0  0  0  0  0  0  0  0
    1.1387   -0.0305    0.0000 C   0  0  0  0  0  0  0  0  0  0  0  0
    1.9233   -0.2854    0.0000 C   0  0  0  0  0  0  0  0  0  0  0  0
    2.6378    0.1271    0.0000 N   0  0  0  0  0  0  0  0  0  0  0  0
    3.3523   -0.2854    0.0000 C   0  0  0  0  0  0  0  0  0  0  0  0
    3.3523   -1.1104    0.0000 C   0  0  0  0  0  0  0  0  0  0  0  0
    4.0668   -1.5229    0.0000 C   0  0  0  0  0  0  0  0  0  0  0  0
    4.7812   -1.1104    0.0000 C   0  0  0  0  0  0  0  0  0  0  0  0
    5.4957   -1.5229    0.0000 C   0  0  0  0  0  0  0  0  0  0  0  0
    5.4957   -2.3479    0.0000 C   0  0  0  0  0  0  0  0  0  0  0  0
    6.2102   -2.7604    0.0000 F   0  0  0  0  0  0  0  0  0  0  0  0
    4.7812   -2.7604    0.0000 C   0  0  0  0  0  0  0  0  0  0  0  0
    4.7812   -3.5854    0.0000 Cl  0  0  0  0  0  0  0  0  0  0  0  0
    4.0668   -2.3479    0.0000 C   0  0  0  0  0  0  0  0  0  0  0  0
    2.6378   -1.5229    0.0000 C   0  0  0  0  0  0  0  0  0  0  0  0
    1.9233   -1.1104    0.0000 C   0  0  0  0  0  0  0  0  0  0  0  0
  1  2  1  0  0  0  0
  2  3  1  0  0  0  0
  2  4  1  0  0  0  0
  4  5  2  0  0  0  0
  4  6  1  0  0  0  0
  6  7  1  0  0  0  0
  7  8  4  0  0  0  0
  8  9  4  0  0  0  0
  9 10  4  0  0  0  0
 10 11  4  0  0  0  0
 11 12  4  0  0  0  0
 12 13  4  0  0  0  0
 13 14  1  0  0  0  0
 14 15  4  0  0  0  0
 15 16  4  0  0  0  0
 16 17  4  0  0  0  0
 17 18  1  0  0  0  0
 17 19  4  0  0  0  0
 19 20  1  0  0  0  0
 19 21  4  0  0  0  0
 14 21  4  0  0  0  0
 13 22  4  0  0  0  0
 22 23  4  0  0  0  0
 10 23  4  0  0  0  0
  7 23  4  0  0  0  0
M  END
>  <CdId>
701

>  <Mol Weight>
331.78

>  <Formula>
C17H15ClFN3O

>  <Molecule ChEMBL ID>
CHEMBL4593473

>  <Molecule Max Phase>
None

>  <Molecular Weight>
331.78

>  <#RO5 Violations>
0

>  <AlogP>
3.58

>  <Compound Key>
26

>  <Standard Type>
IC50

>  <Standard Relation>
'>'

>  <Standard Value>
10000.0

>  <Standard Units>
nM

$$$$

  Mrv2114 03112311372D          

 35 39  0  0  1  0            999 V2000
    2.5645    5.7750    0.0000 C   0  0  0  0  0  0  0  0  0  0  0  0
    2.5645    4.9500    0.0000 C   0  0  0  0  0  0  0  0  0  0  0  0
    3.2789    4.5375    0.0000 C   0  0  0  0  0  0  0  0  0  0  0  0
    3.9934    4.9500    0.0000 O   0  0  0  0  0  0  0  0  0  0  0  0
    3.2789    3.7125    0.0000 N   0  0  0  0  0  0  0  0  0  0  0  0
    3.9934    3.3000    0.0000 C   0  0  0  0  0  0  0  0  0  0  0  0
    3.9934    2.4750    0.0000 C   0  0  0  0  0  0  0  0  0  0  0  0
    3.2789    2.0625    0.0000 C   0  0  0  0  0  0  0  0  0  0  0  0
    3.2789    1.2375    0.0000 C   0  0  2  0  0  0  0  0  0  0  0  0
    3.9934    0.8250    0.0000 C   0  0  0  0  0  0  0  0  0  0  0  0
    3.9934    0.0000    0.0000 C   0  0  0  0  0  0  0  0  0  0  0  0
    3.2789   -0.4125    0.0000 N   0  0  0  0  0  0  0  0  0  0  0  0
    2.5645    0.0000    0.0000 C   0  0  0  0  0  0  0  0  0  0  0  0
    1.7798   -0.2549    0.0000 C   0  0  0  0  0  0  0  0  0  0  0  0
    1.5249   -1.0396    0.0000 C   0  0  0  0  0  0  0  0  0  0  0  0
    0.7179   -1.2111    0.0000 N   0  0  0  0  0  0  0  0  0  0  0  0
    2.0769   -1.6527    0.0000 O   0  0  0  0  0  0  0  0  0  0  0  0
    1.2949    0.4125    0.0000 C   0  0  0  0  0  0  0  0  0  0  0  0
    0.4699    0.4125    0.0000 C   0  0  0  0  0  0  0  0  0  0  0  0
    0.0574   -0.3020    0.0000 C   0  0  0  0  0  0  0  0  0  0  0  0
   -0.7676   -0.3020    0.0000 C   0  0  0  0  0  0  0  0  0  0  0  0
   -1.1801    0.4125    0.0000 C   0  0  0  0  0  0  0  0  0  0  0  0
   -2.0051    0.4125    0.0000 O   0  0  0  0  0  0  0  0  0  0  0  0
   -2.4176    1.1270    0.0000 C   0  0  0  0  0  0  0  0  0  0  0  0
   -3.2426    1.1270    0.0000 C   0  0  0  0  0  0  0  0  0  0  0  0
   -3.6551    1.8414    0.0000 C   0  0  0  0  0  0  0  0  0  0  0  0
   -3.2426    2.5559    0.0000 C   0  0  0  0  0  0  0  0  0  0  0  0
   -2.4176    2.5559    0.0000 C   0  0  0  0  0  0  0  0  0  0  0  0
   -2.0051    1.8414    0.0000 C   0  0  0  0  0  0  0  0  0  0  0  0
   -0.7676    1.1270    0.0000 C   0  0  0  0  0  0  0  0  0  0  0  0
    0.0574    1.1270    0.0000 C   0  0  0  0  0  0  0  0  0  0  0  0
    1.7798    1.0799    0.0000 N   0  0  0  0  0  0  0  0  0  0  0  0
    2.5645    0.8250    0.0000 N   0  0  0  0  0  0  0  0  0  0  0  0
    2.5645    2.4750    0.0000 C   0  0  0  0  0  0  0  0  0  0  0  0
    2.5645    3.3000    0.0000 C   0  0  0  0  0  0  0  0  0  0  0  0
  1  2  2  0  0  0  0
  2  3  1  0  0  0  0
  3  4  2  0  0  0  0
  3  5  1  0  0  0  0
  5  6  1  0  0  0  0
  6  7  1  0  0  0  0
  7  8  1  0  0  0  0
  9  8  1  6  0  0  0
  9 10  1  0  0  0  0
 10 11  1  0  0  0  0
 11 12  1  0  0  0  0
 12 13  1  0  0  0  0
 13 14  4  0  0  0  0
 14 15  1  0  0  0  0
 15 16  1  0  0  0  0
 15 17  2  0  0  0  0
 14 18  4  0  0  0  0
 18 19  1  0  0  0  0
 19 20  4  0  0  0  0
 20 21  4  0  0  0  0
 21 22  4  0  0  0  0
 22 23  1  0  0  0  0
 23 24  1  0  0  0  0
 24 25  4  0  0  0  0
 25 26  4  0  0  0  0
 26 27  4  0  0  0  0
 27 28  4  0  0  0  0
 28 29  4  0  0  0  0
 24 29  4  0  0  0  0
 22 30  4  0  0  0  0
 30 31  4  0  0  0  0
 19 31  4  0  0  0  0
 18 32  4  0  0  0  0
 32 33  4  0  0  0  0
 13 33  4  0  0  0  0
  9 33  1  0  0  0  0
  8 34  1  0  0  0  0
 34 35  1  0  0  0  0
  5 35  1  0  0  0  0
M  END
>  <CdId>
702

>  <Mol Weight>
471.561

>  <Formula>
C27H29N5O3

>  <Molecule ChEMBL ID>
CHEMBL3936761

>  <Molecule Name>
ZANUBRUTINIB

>  <Molecule Max Phase>
4

>  <Molecular Weight>
471.56

>  <#RO5 Violations>
0

>  <AlogP>
4.22

>  <Compound Key>
31a; BGB-3111

>  <Standard Type>
IC50

>  <Standard Relation>
'='

>  <Standard Value>
4000.0

>  <Standard Units>
nM

$$$$

  Mrv2114 03112311372D          

 25 27  0  0  0  0            999 V2000
   -1.2375   -1.7605    0.0000 C   0  0  0  0  0  0  0  0  0  0  0  0
   -1.2375   -0.9355    0.0000 C   0  0  0  0  0  0  0  0  0  0  0  0
   -0.5230   -0.5230    0.0000 C   0  0  0  0  0  0  0  0  0  0  0  0
    0.1914   -0.9355    0.0000 N   0  0  0  0  0  0  0  0  0  0  0  0
    0.1914   -1.7605    0.0000 C   0  0  0  0  0  0  0  0  0  0  0  0
   -0.4760   -2.2455    0.0000 C   0  0  0  0  0  0  0  0  0  0  0  0
   -0.2211   -3.0301    0.0000 C   0  0  0  0  0  0  0  0  0  0  0  0
    0.6039   -3.0301    0.0000 N   0  0  0  0  0  0  0  0  0  0  0  0
    0.8589   -2.2455    0.0000 N   0  0  0  0  0  0  0  0  0  0  0  0
    1.6435   -1.9905    0.0000 C   0  0  0  0  0  0  0  0  0  0  0  0
    1.8150   -1.1835    0.0000 C   0  0  0  0  0  0  0  0  0  0  0  0
    2.5997   -0.9286    0.0000 C   0  0  0  0  0  0  0  0  0  0  0  0
    3.2127   -1.4806    0.0000 C   0  0  0  0  0  0  0  0  0  0  0  0
    3.0412   -2.2876    0.0000 C   0  0  0  0  0  0  0  0  0  0  0  0
    2.2566   -2.5425    0.0000 C   0  0  0  0  0  0  0  0  0  0  0  0
    0.9059   -0.5230    0.0000 S   0  0  0  0  0  0  0  0  0  0  0  0
    1.6204   -0.1105    0.0000 O   0  0  0  0  0  0  0  0  0  0  0  0
    1.3184   -1.2375    0.0000 O   0  0  0  0  0  0  0  0  0  0  0  0
    0.4934    0.1914    0.0000 C   0  0  0  0  0  0  0  0  0  0  0  0
   -0.3316    0.1914    0.0000 C   0  0  0  0  0  0  0  0  0  0  0  0
   -0.7441    0.9059    0.0000 C   0  0  0  0  0  0  0  0  0  0  0  0
   -0.3316    1.6204    0.0000 C   0  0  0  0  0  0  0  0  0  0  0  0
   -0.7441    2.3349    0.0000 C   0  0  0  0  0  0  0  0  0  0  0  0
    0.4934    1.6204    0.0000 C   0  0  0  0  0  0  0  0  0  0  0  0
    0.9059    0.9059    0.0000 C   0  0  0  0  0  0  0  0  0  0  0  0
  1  2  1  0  0  0  0
  2  3  1  0  0  0  0
  3  4  1  0  0  0  0
  4  5  1  0  0  0  0
  5  6  4  0  0  0  0
  6  7  4  0  0  0  0
  7  8  4  0  0  0  0
  8  9  4  0  0  0  0
  5  9  4  0  0  0  0
  9 10  1  0  0  0  0
 10 11  4  0  0  0  0
 11 12  4  0  0  0  0
 12 13  4  0  0  0  0
 13 14  4  0  0  0  0
 14 15  4  0  0  0  0
 10 15  4  0  0  0  0
  4 16  1  0  0  0  0
 16 17  2  0  0  0  0
 16 18  2  0  0  0  0
 16 19  1  0  0  0  0
 19 20  4  0  0  0  0
 20 21  4  0  0  0  0
 21 22  4  0  0  0  0
 22 23  1  0  0  0  0
 22 24  4  0  0  0  0
 24 25  4  0  0  0  0
 19 25  4  0  0  0  0
M  END
>  <CdId>
703

>  <Mol Weight>
355.46

>  <Formula>
C19H21N3O2S

>  <Molecule ChEMBL ID>
CHEMBL121040

>  <Molecule Max Phase>
None

>  <Molecular Weight>
355.46

>  <#RO5 Violations>
0

>  <AlogP>
3.79

>  <Compound Key>
24

>  <Standard Type>
IC50

>  <Standard Relation>
'='

>  <Standard Value>
15000.0

>  <Standard Units>
nM

$$$$

  Mrv2114 03112311372D          

 34 37  0  0  1  0            999 V2000
    1.4289   -0.8250    0.0000 C   0  0  0  0  0  0  0  0  0  0  0  0
    1.4289    0.0000    0.0000 C   0  0  0  0  0  0  0  0  0  0  0  0
    0.7145    0.4125    0.0000 C   0  0  0  0  0  0  0  0  0  0  0  0
   -0.0000    0.0000    0.0000 N   0  0  0  0  0  0  0  0  0  0  0  0
   -0.0862   -0.8205    0.0000 C   0  0  0  0  0  0  0  0  0  0  0  0
   -0.8932   -0.9920    0.0000 C   0  0  0  0  0  0  0  0  0  0  0  0
   -1.3057   -0.2775    0.0000 C   0  0  0  0  0  0  0  0  0  0  0  0
   -0.7537    0.3356    0.0000 C   0  0  0  0  0  0  0  0  0  0  0  0
    0.7145    1.2375    0.0000 N   0  0  0  0  0  0  0  0  0  0  0  0
    1.4289    1.6500    0.0000 C   0  0  0  0  0  0  0  0  0  0  0  0
    1.4289    2.4750    0.0000 C   0  0  0  0  0  0  0  0  0  0  0  0
    2.1434    2.8875    0.0000 C   0  0  0  0  0  0  0  0  0  0  0  0
    2.8579    2.4750    0.0000 C   0  0  0  0  0  0  0  0  0  0  0  0
    3.5724    2.8875    0.0000 Br  0  0  0  0  0  0  0  0  0  0  0  0
    2.8579    1.6500    0.0000 C   0  0  0  0  0  0  0  0  0  0  0  0
    2.1434    1.2375    0.0000 C   0  0  0  0  0  0  0  0  0  0  0  0
    2.1434    0.4125    0.0000 C   0  0  0  0  0  0  0  0  0  0  0  0
    2.8579    0.0000    0.0000 C   0  0  0  0  0  0  0  0  0  0  0  0
    2.8579   -0.8250    0.0000 O   0  0  0  0  0  0  0  0  0  0  0  0
    3.5724    0.4125    0.0000 N   0  0  0  0  0  0  0  0  0  0  0  0
    4.2868    0.0000    0.0000 C   0  0  0  0  0  0  0  0  0  0  0  0
    5.0013    0.4125    0.0000 C   0  0  2  0  0  0  0  0  0  0  0  0
    5.7158    0.0000    0.0000 C   0  0  0  0  0  0  0  0  0  0  0  0
    6.4302    0.4125    0.0000 C   0  0  0  0  0  0  0  0  0  0  0  0
    7.1447    0.0000    0.0000 C   0  0  0  0  0  0  0  0  0  0  0  0
    7.8592    0.4125    0.0000 O   0  0  0  0  0  0  0  0  0  0  0  0
    7.1447   -0.8250    0.0000 O   0  0  0  0  0  0  0  0  0  0  0  0
    5.0013    1.2375    0.0000 C   0  0  0  0  0  0  0  0  0  0  0  0
    4.2868    1.6500    0.0000 C   0  0  0  0  0  0  0  0  0  0  0  0
    4.2868    2.4750    0.0000 C   0  0  0  0  0  0  0  0  0  0  0  0
    5.0013    2.8875    0.0000 C   0  0  0  0  0  0  0  0  0  0  0  0
    5.7158    2.4750    0.0000 C   0  0  0  0  0  0  0  0  0  0  0  0
    5.7158    1.6500    0.0000 C   0  0  0  0  0  0  0  0  0  0  0  0
    6.4302    1.2375    0.0000 Cl  0  0  0  0  0  0  0  0  0  0  0  0
  1  2  1  0  0  0  0
  2  3  4  0  0  0  0
  3  4  1  0  0  0  0
  4  5  1  0  0  0  0
  5  6  1  0  0  0  0
  6  7  1  0  0  0  0
  7  8  1  0  0  0  0
  4  8  1  0  0  0  0
  3  9  4  0  0  0  0
  9 10  4  0  0  0  0
 10 11  4  0  0  0  0
 11 12  4  0  0  0  0
 12 13  4  0  0  0  0
 13 14  1  0  0  0  0
 13 15  4  0  0  0  0
 15 16  4  0  0  0  0
 10 16  4  0  0  0  0
 16 17  4  0  0  0  0
  2 17  4  0  0  0  0
 17 18  1  0  0  0  0
 18 19  2  0  0  0  0
 18 20  1  0  0  0  0
 20 21  1  0  0  0  0
 22 21  1  1  0  0  0
 22 23  1  0  0  0  0
 23 24  1  0  0  0  0
 24 25  1  0  0  0  0
 25 26  2  0  0  0  0
 25 27  1  0  0  0  0
 22 28  1  0  0  0  0
 28 29  4  0  0  0  0
 29 30  4  0  0  0  0
 30 31  4  0  0  0  0
 31 32  4  0  0  0  0
 32 33  4  0  0  0  0
 28 33  4  0  0  0  0
 33 34  1  0  0  0  0
M  END
>  <CdId>
704

>  <Mol Weight>
544.87

>  <Formula>
C26H27BrClN3O3

>  <Molecule ChEMBL ID>
CHEMBL4643852

>  <Molecule Name>
BAY-6672

>  <Molecule Max Phase>
None

>  <Molecular Weight>
544.88

>  <#RO5 Violations>
2

>  <AlogP>
5.94

>  <Compound Key>
46, BAY-6672

>  <Standard Type>
IC50

>  <Standard Relation>
'>'

>  <Standard Value>
20000.0

>  <Standard Units>
nM

$$$$

  Mrv2114 03112311372D          

 23 27  0  0  1  0            999 V2000
    7.2002   -0.5025    0.0000 C   0  0  0  0  0  0  0  0  0  0  0  0
    6.5736   -1.0392    0.0000 C   0  0  0  0  0  0  0  0  0  0  0  0
    5.7955   -0.7649    0.0000 C   0  0  0  0  0  0  0  0  0  0  0  0
    5.6441    0.0461    0.0000 C   0  0  0  0  0  0  0  0  0  0  0  0
    4.8660    0.3204    0.0000 C   0  0  0  0  0  0  0  0  0  0  0  0
    4.7145    1.1314    0.0000 C   0  0  0  0  0  0  0  0  0  0  0  0
    3.9365    1.4057    0.0000 N   0  0  0  0  0  0  0  0  0  0  0  0
    3.3099    0.8690    0.0000 C   0  0  0  0  0  0  0  0  0  0  0  0
    3.3757    0.0466    0.0000 N   0  0  0  0  0  0  0  0  0  0  0  0
    2.6140   -0.2701    0.0000 C   0  0  0  0  0  0  0  0  0  0  0  0
    2.0773    0.3565    0.0000 C   0  0  2  0  0  0  0  0  0  0  0  0
    1.7232   -0.3887    0.0000 C   0  0  0  0  0  0  0  0  0  0  0  0
    0.9008   -0.4545    0.0000 N   0  0  0  0  0  0  0  0  0  0  0  0
    0.4326    0.2247    0.0000 C   0  0  0  0  0  0  0  0  0  0  0  0
    0.7867    0.9698    0.0000 C   0  0  0  0  0  0  0  0  0  0  0  0
    1.6091    1.0357    0.0000 C   0  0  0  0  0  0  0  0  0  0  0  0
    1.2488    0.5980    0.0000 C   0  0  0  0  0  0  0  0  0  0  0  0
    1.0127    0.1012    0.0000 C   0  0  0  0  0  0  0  0  0  0  0  0
    2.5074    1.0605    0.0000 O   0  0  0  0  0  0  0  0  0  0  0  0
    5.3411    1.6680    0.0000 N   0  0  0  0  0  0  0  0  0  0  0  0
    6.1192    1.3937    0.0000 C   0  0  0  0  0  0  0  0  0  0  0  0
    6.2707    0.5828    0.0000 C   0  0  0  0  0  0  0  0  0  0  0  0
    7.0487    0.3084    0.0000 C   0  0  0  0  0  0  0  0  0  0  0  0
  1  2  4  0  0  0  0
  2  3  4  0  0  0  0
  3  4  4  0  0  0  0
  4  5  4  0  0  0  0
  5  6  4  0  0  0  0
  6  7  1  0  0  0  0
  7  8  1  0  0  0  0
  8  9  2  0  0  0  0
  9 10  1  0  0  0  0
 11 10  1  0  0  0  0
 11 12  1  0  0  0  0
 12 13  1  0  0  0  0
 13 14  1  0  0  0  0
 14 15  1  0  0  0  0
 15 16  1  0  0  0  0
 11 16  1  0  0  0  0
 16 17  1  0  0  0  0
 17 18  1  0  0  0  0
 13 18  1  0  0  0  0
 11 19  1  1  0  0  0
  8 19  1  0  0  0  0
  6 20  4  0  0  0  0
 20 21  4  0  0  0  0
 21 22  4  0  0  0  0
  4 22  4  0  0  0  0
 22 23  4  0  0  0  0
  1 23  4  0  0  0  0
M  END
>  <CdId>
705

>  <Mol Weight>
308.385

>  <Formula>
C18H20N4O

>  <Molecule ChEMBL ID>
CHEMBL3918431

>  <Molecule Max Phase>
None

>  <Molecular Weight>
308.39

>  <#RO5 Violations>
0

>  <AlogP>
2.5

>  <Compound Key>
57; BMS 902483

>  <Standard Type>
IC50

>  <Standard Relation>
'>'

>  <Standard Value>
40000.0

>  <Standard Units>
nM

$$$$

  Mrv2114 03112311372D          

 41 43  0  0  1  0            999 V2000
    0.8212    2.8259    0.0000 C   0  0  0  0  0  0  0  0  0  0  0  0
    0.1067    3.2384    0.0000 C   0  0  2  0  0  0  0  0  0  0  0  0
   -0.6078    2.8259    0.0000 N   0  0  0  0  0  0  0  0  0  0  0  0
   -0.6078    2.0009    0.0000 S   0  0  0  0  0  0  0  0  0  0  0  0
    0.2172    2.0009    0.0000 O   0  0  0  0  0  0  0  0  0  0  0  0
   -1.4328    2.0009    0.0000 O   0  0  0  0  0  0  0  0  0  0  0  0
   -0.6078    1.1759    0.0000 C   0  0  0  0  0  0  0  0  0  0  0  0
   -1.3222    0.7634    0.0000 C   0  0  0  0  0  0  0  0  0  0  0  0
   -1.3222   -0.0616    0.0000 C   0  0  0  0  0  0  0  0  0  0  0  0
   -0.6078   -0.4741    0.0000 C   0  0  0  0  0  0  0  0  0  0  0  0
   -0.6078   -1.2991    0.0000 C   0  0  0  0  0  0  0  0  0  0  0  0
    0.0597   -1.7840    0.0000 S   0  0  0  0  0  0  0  0  0  0  0  0
   -0.1953   -2.5687    0.0000 C   0  0  0  0  0  0  0  0  0  0  0  0
    0.2897   -3.2361    0.0000 C   0  0  0  0  0  0  0  0  0  0  0  0
    1.1101   -3.1499    0.0000 O   0  0  0  0  0  0  0  0  0  0  0  0
   -0.0459   -3.9898    0.0000 N   0  0  0  0  0  0  0  0  0  0  0  0
    0.4390   -4.6572    0.0000 C   0  0  0  0  0  0  0  0  0  0  0  0
    0.1035   -5.4109    0.0000 C   0  0  0  0  0  0  0  0  0  0  0  0
   -0.2321   -6.1646    0.0000 C   0  0  0  0  0  0  0  0  0  0  0  0
    0.8571   -5.7464    0.0000 C   0  0  0  0  0  0  0  0  0  0  0  0
   -0.6502   -5.0753    0.0000 O   0  0  0  0  0  0  0  0  0  0  0  0
   -1.0203   -2.5687    0.0000 N   0  0  0  0  0  0  0  0  0  0  0  0
   -1.2752   -1.7840    0.0000 C   0  0  0  0  0  0  0  0  0  0  0  0
   -2.0598   -1.5291    0.0000 C   0  0  0  0  0  0  0  0  0  0  0  0
   -2.2314   -0.7221    0.0000 O   0  0  0  0  0  0  0  0  0  0  0  0
   -2.6729   -2.0811    0.0000 N   0  0  0  0  0  0  0  0  0  0  0  0
   -2.5014   -2.8881    0.0000 C   0  0  0  0  0  0  0  0  0  0  0  0
   -3.1145   -3.4401    0.0000 C   0  0  0  0  0  0  0  0  0  0  0  0
   -3.8991   -3.1852    0.0000 C   0  0  2  0  0  0  0  0  0  0  0  0
   -4.5122   -3.7372    0.0000 F   0  0  0  0  0  0  0  0  0  0  0  0
   -4.0706   -2.3782    0.0000 C   0  0  0  0  0  0  0  0  0  0  0  0
   -3.4575   -1.8262    0.0000 C   0  0  2  0  0  0  0  0  0  0  0  0
   -3.6291   -1.0192    0.0000 C   0  0  0  0  0  0  0  0  0  0  0  0
    0.1067   -0.0616    0.0000 C   0  0  0  0  0  0  0  0  0  0  0  0
    0.8212   -0.4741    0.0000 Cl  0  0  0  0  0  0  0  0  0  0  0  0
    0.1067    0.7634    0.0000 C   0  0  0  0  0  0  0  0  0  0  0  0
    0.8212    1.1759    0.0000 Cl  0  0  0  0  0  0  0  0  0  0  0  0
    0.1067    4.0634    0.0000 C   0  0  0  0  0  0  0  0  0  0  0  0
    0.1067    4.8884    0.0000 F   0  0  0  0  0  0  0  0  0  0  0  0
    0.9317    4.0634    0.0000 F   0  0  0  0  0  0  0  0  0  0  0  0
   -0.7183    4.0634    0.0000 F   0  0  0  0  0  0  0  0  0  0  0  0
  2  1  1  6  0  0  0
  2  3  1  0  0  0  0
  3  4  1  0  0  0  0
  4  5  2  0  0  0  0
  4  6  2  0  0  0  0
  4  7  1  0  0  0  0
  7  8  4  0  0  0  0
  8  9  4  0  0  0  0
  9 10  4  0  0  0  0
 10 11  1  0  0  0  0
 11 12  4  0  0  0  0
 12 13  4  0  0  0  0
 13 14  1  0  0  0  0
 14 15  2  0  0  0  0
 14 16  1  0  0  0  0
 16 17  1  0  0  0  0
 17 18  1  0  0  0  0
 18 19  1  0  0  0  0
 18 20  1  0  0  0  0
 18 21  1  0  0  0  0
 13 22  4  0  0  0  0
 22 23  4  0  0  0  0
 11 23  4  0  0  0  0
 23 24  1  0  0  0  0
 24 25  2  0  0  0  0
 24 26  1  0  0  0  0
 26 27  1  0  0  0  0
 27 28  1  0  0  0  0
 29 28  1  0  0  0  0
 29 30  1  6  0  0  0
 29 31  1  0  0  0  0
 32 31  1  0  0  0  0
 32 26  1  0  0  0  0
 32 33  1  6  0  0  0
 10 34  4  0  0  0  0
 34 35  1  0  0  0  0
 34 36  4  0  0  0  0
  7 36  4  0  0  0  0
 36 37  1  0  0  0  0
  2 38  1  0  0  0  0
 38 39  1  0  0  0  0
 38 40  1  0  0  0  0
 38 41  1  0  0  0  0
M  END
>  <CdId>
706

>  <Mol Weight>
663.52

>  <Formula>
C24H28Cl2F4N4O5S2

>  <Molecule ChEMBL ID>
CHEMBL4634281

>  <Molecule Max Phase>
None

>  <Molecular Weight>
663.54

>  <#RO5 Violations>
1

>  <AlogP>
4.81

>  <Compound Key>
1i

>  <Standard Type>
IC50

>  <Standard Relation>
'>'

>  <Standard Value>
10000.0

>  <Standard Units>
nM

$$$$

  Mrv2114 03112311372D          

 40 42  0  0  1  0            999 V2000
    1.5395    8.1950    0.0000 C   0  0  0  0  0  0  0  0  0  0  0  0
    1.9520    7.4805    0.0000 C   0  0  2  0  0  0  0  0  0  0  0  0
    1.5395    6.7661    0.0000 N   0  0  0  0  0  0  0  0  0  0  0  0
    0.7145    6.7661    0.0000 S   0  0  0  0  0  0  0  0  0  0  0  0
   -0.1105    6.7661    0.0000 O   0  0  0  0  0  0  0  0  0  0  0  0
    0.7145    7.5911    0.0000 O   0  0  0  0  0  0  0  0  0  0  0  0
    0.7145    5.9411    0.0000 C   0  0  0  0  0  0  0  0  0  0  0  0
    1.4289    5.5286    0.0000 C   0  0  0  0  0  0  0  0  0  0  0  0
    1.4289    4.7036    0.0000 C   0  0  0  0  0  0  0  0  0  0  0  0
    0.7145    4.2911    0.0000 C   0  0  0  0  0  0  0  0  0  0  0  0
    0.7145    3.4661    0.0000 C   0  0  0  0  0  0  0  0  0  0  0  0
    0.0470    2.9812    0.0000 S   0  0  0  0  0  0  0  0  0  0  0  0
    0.3020    2.1965    0.0000 C   0  0  0  0  0  0  0  0  0  0  0  0
   -0.1830    1.5291    0.0000 C   0  0  0  0  0  0  0  0  0  0  0  0
    0.1526    0.7754    0.0000 O   0  0  0  0  0  0  0  0  0  0  0  0
   -1.0034    1.6153    0.0000 N   0  0  0  0  0  0  0  0  0  0  0  0
   -1.4884    0.9479    0.0000 C   0  0  0  0  0  0  0  0  0  0  0  0
   -2.3088    1.0341    0.0000 C   0  0  0  0  0  0  0  0  0  0  0  0
   -3.1293    1.1204    0.0000 C   0  0  0  0  0  0  0  0  0  0  0  0
   -2.3951    0.2136    0.0000 C   0  0  0  0  0  0  0  0  0  0  0  0
   -2.2226    1.8546    0.0000 O   0  0  0  0  0  0  0  0  0  0  0  0
    1.1270    2.1965    0.0000 N   0  0  0  0  0  0  0  0  0  0  0  0
    1.3819    2.9812    0.0000 C   0  0  0  0  0  0  0  0  0  0  0  0
    2.1665    3.2361    0.0000 C   0  0  0  0  0  0  0  0  0  0  0  0
    2.3381    4.0431    0.0000 O   0  0  0  0  0  0  0  0  0  0  0  0
    2.7796    2.6841    0.0000 N   0  0  0  0  0  0  0  0  0  0  0  0
    3.5866    2.8556    0.0000 C   0  0  0  0  0  0  0  0  0  0  0  0
    3.9991    2.1411    0.0000 C   0  0  0  0  0  0  0  0  0  0  0  0
    3.4471    1.5280    0.0000 C   0  0  0  0  0  0  0  0  0  0  0  0
    4.1145    1.0431    0.0000 F   0  0  0  0  0  0  0  0  0  0  0  0
    3.0346    0.8135    0.0000 F   0  0  0  0  0  0  0  0  0  0  0  0
    2.6934    1.8636    0.0000 C   0  0  0  0  0  0  0  0  0  0  0  0
   -0.0000    4.7036    0.0000 C   0  0  0  0  0  0  0  0  0  0  0  0
   -0.7145    4.2911    0.0000 Cl  0  0  0  0  0  0  0  0  0  0  0  0
   -0.0000    5.5286    0.0000 C   0  0  0  0  0  0  0  0  0  0  0  0
   -0.7145    5.9411    0.0000 Cl  0  0  0  0  0  0  0  0  0  0  0  0
    2.7770    7.4805    0.0000 C   0  0  0  0  0  0  0  0  0  0  0  0
    3.6020    7.4805    0.0000 F   0  0  0  0  0  0  0  0  0  0  0  0
    2.7770    6.6555    0.0000 F   0  0  0  0  0  0  0  0  0  0  0  0
    2.7770    8.3055    0.0000 F   0  0  0  0  0  0  0  0  0  0  0  0
  2  1  1  1  0  0  0
  2  3  1  0  0  0  0
  3  4  1  0  0  0  0
  4  5  2  0  0  0  0
  4  6  2  0  0  0  0
  4  7  1  0  0  0  0
  7  8  4  0  0  0  0
  8  9  4  0  0  0  0
  9 10  4  0  0  0  0
 10 11  1  0  0  0  0
 11 12  4  0  0  0  0
 12 13  4  0  0  0  0
 13 14  1  0  0  0  0
 14 15  2  0  0  0  0
 14 16  1  0  0  0  0
 16 17  1  0  0  0  0
 17 18  1  0  0  0  0
 18 19  1  0  0  0  0
 18 20  1  0  0  0  0
 18 21  1  0  0  0  0
 13 22  4  0  0  0  0
 22 23  4  0  0  0  0
 11 23  4  0  0  0  0
 23 24  1  0  0  0  0
 24 25  2  0  0  0  0
 24 26  1  0  0  0  0
 26 27  1  0  0  0  0
 27 28  1  0  0  0  0
 28 29  1  0  0  0  0
 29 30  1  0  0  0  0
 29 31  1  0  0  0  0
 29 32  1  0  0  0  0
 26 32  1  0  0  0  0
 10 33  4  0  0  0  0
 33 34  1  0  0  0  0
 33 35  4  0  0  0  0
  7 35  4  0  0  0  0
 35 36  1  0  0  0  0
  2 37  1  0  0  0  0
 37 38  1  0  0  0  0
 37 39  1  0  0  0  0
 37 40  1  0  0  0  0
M  END
>  <CdId>
707

>  <Mol Weight>
653.46

>  <Formula>
C22H23Cl2F5N4O5S2

>  <Molecule ChEMBL ID>
CHEMBL4647147

>  <Molecule Max Phase>
None

>  <Molecular Weight>
653.48

>  <#RO5 Violations>
1

>  <AlogP>
4.33

>  <Compound Key>
1t

>  <Standard Type>
IC50

>  <Standard Relation>
'>'

>  <Standard Value>
10000.0

>  <Standard Units>
nM

$$$$

  Mrv2114 03112311372D          

 64 66  0  0  0  0            999 V2000
   17.6646   -7.1784    0.0000 C   0  0  0  0  0  0  0  0  0  0  0  0
   18.0771   -6.4639    0.0000 C   0  0  0  0  0  0  0  0  0  0  0  0
   18.9021   -6.4639    0.0000 C   0  0  0  0  0  0  0  0  0  0  0  0
   19.3146   -5.7495    0.0000 C   0  0  0  0  0  0  0  0  0  0  0  0
   20.1396   -5.7495    0.0000 C   0  0  0  0  0  0  0  0  0  0  0  0
   20.5521   -5.0350    0.0000 C   0  0  0  0  0  0  0  0  0  0  0  0
   21.3771   -5.0350    0.0000 C   0  0  0  0  0  0  0  0  0  0  0  0
   21.7896   -4.3205    0.0000 C   0  0  0  0  0  0  0  0  0  0  0  0
   22.6146   -4.3205    0.0000 C   0  0  0  0  0  0  0  0  0  0  0  0
   23.0271   -3.6061    0.0000 C   0  0  0  0  0  0  0  0  0  0  0  0
   23.8521   -3.6061    0.0000 C   0  0  0  0  0  0  0  0  0  0  0  0
   24.2646   -2.8916    0.0000 C   0  0  0  0  0  0  0  0  0  0  0  0
   23.8521   -2.1771    0.0000 O   0  0  0  0  0  0  0  0  0  0  0  0
   25.0896   -2.8916    0.0000 O   0  0  0  0  0  0  0  0  0  0  0  0
   25.5021   -2.1771    0.0000 C   0  0  0  0  0  0  0  0  0  0  0  0
   26.3271   -2.1771    0.0000 C   0  0  0  0  0  0  0  0  0  0  0  0
   26.7396   -1.4626    0.0000 C   0  0  0  0  0  0  0  0  0  0  0  0
   27.5646   -1.4626    0.0000 O   0  0  0  0  0  0  0  0  0  0  0  0
   27.9771   -0.7482    0.0000 P   0  0  0  0  0  0  0  0  0  0  0  0
   28.6916   -1.1607    0.0000 O   0  0  0  0  0  0  0  0  0  0  0  0
   27.2627   -0.3357    0.0000 O   0  0  0  0  0  0  0  0  0  0  0  0
   28.3896   -0.0337    0.0000 O   0  0  0  0  0  0  0  0  0  0  0  0
   29.2146   -0.0337    0.0000 C   0  0  0  0  0  0  0  0  0  0  0  0
   29.6271    0.6808    0.0000 C   0  0  0  0  0  0  0  0  0  0  0  0
   30.4521    0.6808    0.0000 N   0  0  0  0  0  0  0  0  0  0  0  0
   30.8646    1.3952    0.0000 C   0  0  0  0  0  0  0  0  0  0  0  0
   30.4521    2.1097    0.0000 O   0  0  0  0  0  0  0  0  0  0  0  0
   31.6896    1.3952    0.0000 C   0  0  0  0  0  0  0  0  0  0  0  0
   32.1021    2.1097    0.0000 C   0  0  0  0  0  0  0  0  0  0  0  0
   32.9271    2.1097    0.0000 C   0  0  0  0  0  0  0  0  0  0  0  0
   33.3396    1.3952    0.0000 C   0  0  0  0  0  0  0  0  0  0  0  0
   34.1646    1.3952    0.0000 C   0  0  0  0  0  0  0  0  0  0  0  0
   34.5771    2.1097    0.0000 N   0  0  0  0  0  0  0  0  0  0  0  0
   34.2416    2.8634    0.0000 C   0  0  0  0  0  0  0  0  0  0  0  0
   33.4346    3.0349    0.0000 O   0  0  0  0  0  0  0  0  0  0  0  0
   34.8547    3.4154    0.0000 N   0  0  0  0  0  0  0  0  0  0  0  0
   35.5691    3.0029    0.0000 C   0  0  0  0  0  0  0  0  0  0  0  0
   36.3538    3.2579    0.0000 C   0  0  0  0  0  0  0  0  0  0  0  0
   36.5253    4.0648    0.0000 N   0  0  0  0  0  0  0  0  0  0  0  0
   36.9668    2.7058    0.0000 N   0  0  0  0  0  0  0  0  0  0  0  0
   36.7953    1.8989    0.0000 C   0  0  0  0  0  0  0  0  0  0  0  0
   37.4084    1.3468    0.0000 O   0  0  0  0  0  0  0  0  0  0  0  0
   37.2369    0.5399    0.0000 C   0  0  0  0  0  0  0  0  0  0  0  0
   37.8500   -0.0122    0.0000 C   0  0  0  0  0  0  0  0  0  0  0  0
   37.6785   -0.8192    0.0000 O   0  0  0  0  0  0  0  0  0  0  0  0
   38.2915   -1.3712    0.0000 C   0  0  0  0  0  0  0  0  0  0  0  0
   36.0107    1.6439    0.0000 N   0  0  0  0  0  0  0  0  0  0  0  0
   35.3976    2.1960    0.0000 C   0  0  0  0  0  0  0  0  0  0  0  0
   32.9271    0.6808    0.0000 C   0  0  0  0  0  0  0  0  0  0  0  0
   32.1021    0.6808    0.0000 C   0  0  0  0  0  0  0  0  0  0  0  0
   26.7396   -2.8916    0.0000 O   0  0  0  0  0  0  0  0  0  0  0  0
   27.5646   -2.8916    0.0000 C   0  0  0  0  0  0  0  0  0  0  0  0
   27.9771   -2.1771    0.0000 O   0  0  0  0  0  0  0  0  0  0  0  0
   27.9771   -3.6061    0.0000 C   0  0  0  0  0  0  0  0  0  0  0  0
   28.8021   -3.6061    0.0000 C   0  0  0  0  0  0  0  0  0  0  0  0
   29.2146   -4.3205    0.0000 C   0  0  0  0  0  0  0  0  0  0  0  0
   30.0396   -4.3205    0.0000 C   0  0  0  0  0  0  0  0  0  0  0  0
   30.4521   -5.0350    0.0000 C   0  0  0  0  0  0  0  0  0  0  0  0
   31.2771   -5.0350    0.0000 C   0  0  0  0  0  0  0  0  0  0  0  0
   31.6896   -5.7495    0.0000 C   0  0  0  0  0  0  0  0  0  0  0  0
   32.5146   -5.7495    0.0000 C   0  0  0  0  0  0  0  0  0  0  0  0
   32.9271   -6.4639    0.0000 C   0  0  0  0  0  0  0  0  0  0  0  0
   33.7521   -6.4639    0.0000 C   0  0  0  0  0  0  0  0  0  0  0  0
   34.1646   -7.1784    0.0000 C   0  0  0  0  0  0  0  0  0  0  0  0
  1  2  1  0  0  0  0
  2  3  1  0  0  0  0
  3  4  1  0  0  0  0
  4  5  1  0  0  0  0
  5  6  1  0  0  0  0
  6  7  1  0  0  0  0
  7  8  1  0  0  0  0
  8  9  1  0  0  0  0
  9 10  1  0  0  0  0
 10 11  1  0  0  0  0
 11 12  1  0  0  0  0
 12 13  2  0  0  0  0
 12 14  1  0  0  0  0
 14 15  1  0  0  0  0
 15 16  1  0  0  0  0
 16 17  1  0  0  0  0
 17 18  1  0  0  0  0
 18 19  1  0  0  0  0
 19 20  2  0  0  0  0
 19 21  1  0  0  0  0
 19 22  1  0  0  0  0
 22 23  1  0  0  0  0
 23 24  1  0  0  0  0
 24 25  1  0  0  0  0
 25 26  1  0  0  0  0
 26 27  2  0  0  0  0
 26 28  1  0  0  0  0
 28 29  4  0  0  0  0
 29 30  4  0  0  0  0
 30 31  4  0  0  0  0
 31 32  1  0  0  0  0
 32 33  1  0  0  0  0
 33 34  4  0  0  0  0
 34 35  2  0  0  0  0
 34 36  4  0  0  0  0
 36 37  4  0  0  0  0
 37 38  4  0  0  0  0
 38 39  1  0  0  0  0
 38 40  4  0  0  0  0
 40 41  4  0  0  0  0
 41 42  1  0  0  0  0
 42 43  1  0  0  0  0
 43 44  1  0  0  0  0
 44 45  1  0  0  0  0
 45 46  1  0  0  0  0
 41 47  4  0  0  0  0
 47 48  4  0  0  0  0
 37 48  4  0  0  0  0
 33 48  4  0  0  0  0
 31 49  4  0  0  0  0
 49 50  4  0  0  0  0
 28 50  4  0  0  0  0
 16 51  1  0  0  0  0
 51 52  1  0  0  0  0
 52 53  2  0  0  0  0
 52 54  1  0  0  0  0
 54 55  1  0  0  0  0
 55 56  1  0  0  0  0
 56 57  1  0  0  0  0
 57 58  1  0  0  0  0
 58 59  1  0  0  0  0
 59 60  1  0  0  0  0
 60 61  1  0  0  0  0
 61 62  1  0  0  0  0
 62 63  1  0  0  0  0
 63 64  1  0  0  0  0
M  STY  1   1 DAT
M  SAL   1  1  36
M  SDT   1 MRV_IMPLICIT_H                                        
M  SDD   1     0.0000    0.0000    DR    ALL  0       0  
M  SED   1 IMPL_H1
M  END
>  <CdId>
708

>  <Mol Weight>
921.083

>  <Formula>
C45H73N6O12P

>  <Molecule ChEMBL ID>
CHEMBL4106421

>  <Molecule Max Phase>
None

>  <Molecular Weight>
921.08

>  <#RO5 Violations>
3

>  <AlogP>
7.94

>  <Compound Key>
BDBM190404

>  <Standard Type>
IC50

>  <Standard Relation>
'>'

>  <Standard Value>
100000.0

>  <Standard Units>
nM

$$$$

  Mrv2114 03112311372D          

 35 38  0  0  0  0            999 V2000
    4.8852   -1.5765    0.0000 C   0  0  0  0  0  0  0  0  0  0  0  0
    4.1707   -1.1640    0.0000 C   0  0  0  0  0  0  0  0  0  0  0  0
    3.4562   -1.5765    0.0000 O   0  0  0  0  0  0  0  0  0  0  0  0
    4.1707   -0.3390    0.0000 N   0  0  0  0  0  0  0  0  0  0  0  0
    3.4562    0.0735    0.0000 C   0  0  0  0  0  0  0  0  0  0  0  0
    3.4562    0.8985    0.0000 C   0  0  0  0  0  0  0  0  0  0  0  0
    2.7418    1.3110    0.0000 C   0  0  0  0  0  0  0  0  0  0  0  0
    2.0273    0.8985    0.0000 C   0  0  0  0  0  0  0  0  0  0  0  0
    2.0273    0.0735    0.0000 C   0  0  0  0  0  0  0  0  0  0  0  0
    1.3128   -0.3390    0.0000 C   0  0  0  0  0  0  0  0  0  0  0  0
    1.3128   -1.1640    0.0000 C   0  0  0  0  0  0  0  0  0  0  0  0
    0.5984   -1.5765    0.0000 C   0  0  0  0  0  0  0  0  0  0  0  0
   -0.1161   -1.1640    0.0000 C   0  0  0  0  0  0  0  0  0  0  0  0
   -0.9007   -1.4189    0.0000 N   0  0  0  0  0  0  0  0  0  0  0  0
   -1.3857   -0.7515    0.0000 C   0  0  0  0  0  0  0  0  0  0  0  0
   -2.2107   -0.7515    0.0000 C   0  0  0  0  0  0  0  0  0  0  0  0
   -2.6232   -0.0370    0.0000 C   0  0  0  0  0  0  0  0  0  0  0  0
   -3.4482   -0.0370    0.0000 C   0  0  0  0  0  0  0  0  0  0  0  0
   -3.8607   -0.7515    0.0000 C   0  0  0  0  0  0  0  0  0  0  0  0
   -3.4482   -1.4659    0.0000 N   0  0  0  0  0  0  0  0  0  0  0  0
   -2.6232   -1.4659    0.0000 C   0  0  0  0  0  0  0  0  0  0  0  0
   -2.2107   -2.1804    0.0000 N   0  0  0  0  0  0  0  0  0  0  0  0
   -0.9007   -0.0840    0.0000 N   0  0  0  0  0  0  0  0  0  0  0  0
   -1.1557    0.7006    0.0000 C   0  0  0  0  0  0  0  0  0  0  0  0
   -1.9627    0.8721    0.0000 C   0  0  0  0  0  0  0  0  0  0  0  0
   -2.2176    1.6568    0.0000 C   0  0  0  0  0  0  0  0  0  0  0  0
   -1.6656    2.2698    0.0000 C   0  0  0  0  0  0  0  0  0  0  0  0
   -1.9205    3.0545    0.0000 C   0  0  0  0  0  0  0  0  0  0  0  0
   -2.7275    3.2260    0.0000 N   0  0  0  0  0  0  0  0  0  0  0  0
   -0.8586    2.0983    0.0000 C   0  0  0  0  0  0  0  0  0  0  0  0
   -0.6036    1.3137    0.0000 C   0  0  0  0  0  0  0  0  0  0  0  0
   -0.1161   -0.3390    0.0000 C   0  0  0  0  0  0  0  0  0  0  0  0
    0.5984    0.0735    0.0000 N   0  0  0  0  0  0  0  0  0  0  0  0
    2.7418   -0.3390    0.0000 C   0  0  0  0  0  0  0  0  0  0  0  0
    6.8887    0.0000    0.0000 Cl  0  0  0  0  0  0  0  0  0  0  0  0
  1  2  1  0  0  0  0
  2  3  2  0  0  0  0
  2  4  1  0  0  0  0
  4  5  1  0  0  0  0
  5  6  4  0  0  0  0
  6  7  4  0  0  0  0
  7  8  4  0  0  0  0
  8  9  4  0  0  0  0
  9 10  1  0  0  0  0
 10 11  4  0  0  0  0
 11 12  4  0  0  0  0
 12 13  4  0  0  0  0
 13 14  4  0  0  0  0
 14 15  4  0  0  0  0
 15 16  1  0  0  0  0
 16 17  4  0  0  0  0
 17 18  4  0  0  0  0
 18 19  4  0  0  0  0
 19 20  4  0  0  0  0
 20 21  4  0  0  0  0
 16 21  4  0  0  0  0
 21 22  1  0  0  0  0
 15 23  4  0  0  0  0
 23 24  1  0  0  0  0
 24 25  4  0  0  0  0
 25 26  4  0  0  0  0
 26 27  4  0  0  0  0
 27 28  1  0  0  0  0
 28 29  1  0  0  0  0
 27 30  4  0  0  0  0
 30 31  4  0  0  0  0
 24 31  4  0  0  0  0
 23 32  4  0  0  0  0
 13 32  4  0  0  0  0
 32 33  4  0  0  0  0
 10 33  4  0  0  0  0
  9 34  4  0  0  0  0
  5 34  4  0  0  0  0
M  END
>  <CdId>
709

>  <Mol Weight>
485.98

>  <Formula>
C26H24ClN7O

>  <Molecule ChEMBL ID>
CHEMBL4546484

>  <Molecule Max Phase>
None

>  <Molecular Weight>
485.98

>  <#RO5 Violations>
0

>  <AlogP>
4.15

>  <Compound Key>
9b

>  <Standard Type>
IC50

>  <Standard Relation>
'>'

>  <Standard Value>
20000.0

>  <Standard Units>
nM

$$$$

  Mrv2114 03112311372D          

 49 54  0  0  0  0            999 V2000
   -7.1447   -6.6000    0.0000 C   0  0  0  0  0  0  0  0  0  0  0  0
   -7.8592   -6.1875    0.0000 O   0  0  0  0  0  0  0  0  0  0  0  0
   -7.8592   -5.3625    0.0000 C   0  0  0  0  0  0  0  0  0  0  0  0
   -8.5737   -4.9500    0.0000 C   0  0  0  0  0  0  0  0  0  0  0  0
   -8.5737   -4.1250    0.0000 C   0  0  0  0  0  0  0  0  0  0  0  0
   -7.8592   -3.7125    0.0000 C   0  0  0  0  0  0  0  0  0  0  0  0
   -7.8592   -2.8875    0.0000 C   0  0  0  0  0  0  0  0  0  0  0  0
   -7.1447   -2.4750    0.0000 N   0  0  0  0  0  0  0  0  0  0  0  0
   -7.1447   -1.6500    0.0000 C   0  0  0  0  0  0  0  0  0  0  0  0
   -6.4302   -1.2375    0.0000 C   0  0  0  0  0  0  0  0  0  0  0  0
   -5.7158   -1.6500    0.0000 N   0  0  0  0  0  0  0  0  0  0  0  0
   -5.0013   -1.2375    0.0000 C   0  0  0  0  0  0  0  0  0  0  0  0
   -5.0013   -0.4125    0.0000 C   0  0  0  0  0  0  0  0  0  0  0  0
   -4.2868   -0.0000    0.0000 C   0  0  0  0  0  0  0  0  0  0  0  0
   -3.5724   -0.4125    0.0000 C   0  0  0  0  0  0  0  0  0  0  0  0
   -2.8579   -0.0000    0.0000 N   0  0  0  0  0  0  0  0  0  0  0  0
   -2.1434   -0.4125    0.0000 C   0  0  0  0  0  0  0  0  0  0  0  0
   -2.1434   -1.2375    0.0000 O   0  0  0  0  0  0  0  0  0  0  0  0
   -1.4289   -0.0000    0.0000 C   0  0  0  0  0  0  0  0  0  0  0  0
   -1.4289    0.8250    0.0000 C   0  0  0  0  0  0  0  0  0  0  0  0
   -0.7145    1.2375    0.0000 C   0  0  0  0  0  0  0  0  0  0  0  0
   -0.7145    2.0625    0.0000 O   0  0  0  0  0  0  0  0  0  0  0  0
    0.0000    2.4750    0.0000 C   0  0  0  0  0  0  0  0  0  0  0  0
    0.0000    0.8250    0.0000 C   0  0  0  0  0  0  0  0  0  0  0  0
    0.7145    1.2375    0.0000 O   0  0  0  0  0  0  0  0  0  0  0  0
    1.4289    0.8250    0.0000 C   0  0  0  0  0  0  0  0  0  0  0  0
    0.0000   -0.0000    0.0000 C   0  0  0  0  0  0  0  0  0  0  0  0
   -0.7145   -0.4125    0.0000 C   0  0  0  0  0  0  0  0  0  0  0  0
   -0.7145   -1.2375    0.0000 N   0  0  0  0  0  0  0  0  0  0  0  0
    0.0000   -1.6500    0.0000 C   0  0  0  0  0  0  0  0  0  0  0  0
    0.0000   -2.4750    0.0000 O   0  0  0  0  0  0  0  0  0  0  0  0
    0.7145   -1.2375    0.0000 C   0  0  0  0  0  0  0  0  0  0  0  0
    0.7145   -0.4125    0.0000 C   0  0  0  0  0  0  0  0  0  0  0  0
    1.4289    0.0000    0.0000 N   0  0  0  0  0  0  0  0  0  0  0  0
    2.1434   -0.4125    0.0000 C   0  0  0  0  0  0  0  0  0  0  0  0
    2.8579    0.0000    0.0000 C   0  0  0  0  0  0  0  0  0  0  0  0
    3.5724   -0.4125    0.0000 C   0  0  0  0  0  0  0  0  0  0  0  0
    3.5724   -1.2375    0.0000 C   0  0  0  0  0  0  0  0  0  0  0  0
    2.8579   -1.6500    0.0000 C   0  0  0  0  0  0  0  0  0  0  0  0
    2.1434   -1.2375    0.0000 C   0  0  0  0  0  0  0  0  0  0  0  0
    1.4289   -1.6500    0.0000 C   0  0  0  0  0  0  0  0  0  0  0  0
   -3.5724   -1.2375    0.0000 C   0  0  0  0  0  0  0  0  0  0  0  0
   -4.2868   -1.6500    0.0000 C   0  0  0  0  0  0  0  0  0  0  0  0
   -5.7158   -2.4750    0.0000 C   0  0  0  0  0  0  0  0  0  0  0  0
   -6.4302   -2.8875    0.0000 C   0  0  0  0  0  0  0  0  0  0  0  0
   -7.1447   -4.1250    0.0000 C   0  0  0  0  0  0  0  0  0  0  0  0
   -7.1447   -4.9500    0.0000 C   0  0  0  0  0  0  0  0  0  0  0  0
   -6.4302   -5.3625    0.0000 O   0  0  0  0  0  0  0  0  0  0  0  0
   -6.4302   -6.1875    0.0000 C   0  0  0  0  0  0  0  0  0  0  0  0
  1  2  1  0  0  0  0
  2  3  1  0  0  0  0
  3  4  4  0  0  0  0
  4  5  4  0  0  0  0
  5  6  4  0  0  0  0
  6  7  1  0  0  0  0
  7  8  1  0  0  0  0
  8  9  1  0  0  0  0
  9 10  1  0  0  0  0
 10 11  1  0  0  0  0
 11 12  1  0  0  0  0
 12 13  4  0  0  0  0
 13 14  4  0  0  0  0
 14 15  4  0  0  0  0
 15 16  1  0  0  0  0
 16 17  1  0  0  0  0
 17 18  2  0  0  0  0
 17 19  1  0  0  0  0
 19 20  4  0  0  0  0
 20 21  4  0  0  0  0
 21 22  1  0  0  0  0
 22 23  1  0  0  0  0
 21 24  4  0  0  0  0
 24 25  1  0  0  0  0
 25 26  1  0  0  0  0
 24 27  4  0  0  0  0
 27 28  4  0  0  0  0
 19 28  4  0  0  0  0
 28 29  1  0  0  0  0
 29 30  1  0  0  0  0
 30 31  2  0  0  0  0
 30 32  1  0  0  0  0
 32 33  4  0  0  0  0
 33 34  4  0  0  0  0
 34 35  4  0  0  0  0
 35 36  4  0  0  0  0
 36 37  4  0  0  0  0
 37 38  4  0  0  0  0
 38 39  4  0  0  0  0
 39 40  4  0  0  0  0
 35 40  4  0  0  0  0
 40 41  4  0  0  0  0
 32 41  4  0  0  0  0
 15 42  4  0  0  0  0
 42 43  4  0  0  0  0
 12 43  4  0  0  0  0
 11 44  1  0  0  0  0
 44 45  1  0  0  0  0
  8 45  1  0  0  0  0
  6 46  4  0  0  0  0
 46 47  4  0  0  0  0
  3 47  4  0  0  0  0
 47 48  1  0  0  0  0
 48 49  1  0  0  0  0
M  END
>  <CdId>
710

>  <Mol Weight>
661.759

>  <Formula>
C38H39N5O6

>  <Molecule ChEMBL ID>
CHEMBL242983

>  <Molecule Max Phase>
None

>  <Molecular Weight>
661.76

>  <#RO5 Violations>
2

>  <AlogP>
6.1

>  <Compound Key>
5

>  <Standard Type>
IC50

>  <Standard Relation>
'='

>  <Standard Value>
1080.0

>  <Standard Units>
nM

$$$$

  Mrv2114 03112311372D          

 34 38  0  0  1  0            999 V2000
   -1.2654    2.1918    0.0000 C   0  0  0  0  0  0  0  0  0  0  0  0
   -0.5510    1.7793    0.0000 C   0  0  0  0  0  0  0  0  0  0  0  0
   -0.5510    0.9543    0.0000 C   0  0  0  0  0  0  0  0  0  0  0  0
   -1.2654    0.5418    0.0000 O   0  0  0  0  0  0  0  0  0  0  0  0
    0.1635    0.5418    0.0000 N   0  0  0  0  0  0  0  0  0  0  0  0
    0.1635   -0.2832    0.0000 C   0  0  0  0  0  0  0  0  0  0  0  0
    0.8780   -0.6957    0.0000 C   0  0  2  0  0  0  0  0  0  0  0  0
    0.6717    0.1293    0.0000 C   0  0  0  0  0  0  0  0  0  0  0  0
    0.8780    0.9543    0.0000 C   0  0  1  0  0  0  0  0  0  0  0  0
    1.5925    0.5418    0.0000 C   0  0  0  0  0  0  0  0  0  0  0  0
    1.5925   -0.2832    0.0000 N   0  0  0  0  0  0  0  0  0  0  0  0
    2.3069   -0.6957    0.0000 C   0  0  0  0  0  0  0  0  0  0  0  0
    3.0214   -0.2832    0.0000 C   0  0  0  0  0  0  0  0  0  0  0  0
    3.7359   -0.6957    0.0000 C   0  0  0  0  0  0  0  0  0  0  0  0
    3.7359   -1.5207    0.0000 C   0  0  0  0  0  0  0  0  0  0  0  0
    4.4503   -1.9332    0.0000 C   0  0  0  0  0  0  0  0  0  0  0  0
    4.4503   -2.7582    0.0000 N   0  0  0  0  0  0  0  0  0  0  0  0
    5.1648   -1.5207    0.0000 O   0  0  0  0  0  0  0  0  0  0  0  0
    3.0214   -1.9332    0.0000 C   0  0  0  0  0  0  0  0  0  0  0  0
    3.0214   -2.7582    0.0000 O   0  0  0  0  0  0  0  0  0  0  0  0
    2.3069   -3.1707    0.0000 C   0  0  0  0  0  0  0  0  0  0  0  0
    2.3069   -3.9957    0.0000 C   0  0  0  0  0  0  0  0  0  0  0  0
    1.5925   -4.4082    0.0000 C   0  0  0  0  0  0  0  0  0  0  0  0
    0.8780   -3.9957    0.0000 C   0  0  0  0  0  0  0  0  0  0  0  0
    0.1635   -4.4082    0.0000 O   0  0  0  0  0  0  0  0  0  0  0  0
   -0.5510   -3.9957    0.0000 C   0  0  0  0  0  0  0  0  0  0  0  0
   -1.2654   -4.4082    0.0000 C   0  0  0  0  0  0  0  0  0  0  0  0
   -1.9799   -3.9957    0.0000 C   0  0  0  0  0  0  0  0  0  0  0  0
   -1.9799   -3.1707    0.0000 C   0  0  0  0  0  0  0  0  0  0  0  0
   -1.2654   -2.7582    0.0000 C   0  0  0  0  0  0  0  0  0  0  0  0
   -0.5510   -3.1707    0.0000 C   0  0  0  0  0  0  0  0  0  0  0  0
    0.8780   -3.1707    0.0000 C   0  0  0  0  0  0  0  0  0  0  0  0
    1.5925   -2.7582    0.0000 C   0  0  0  0  0  0  0  0  0  0  0  0
    2.3069   -1.5207    0.0000 N   0  0  0  0  0  0  0  0  0  0  0  0
  1  2  2  0  0  0  0
  2  3  1  0  0  0  0
  3  4  2  0  0  0  0
  3  5  1  0  0  0  0
  5  6  1  0  0  0  0
  7  6  1  0  0  0  0
  7  8  1  1  0  0  0
  9  8  1  1  0  0  0
  9  5  1  0  0  0  0
  9 10  1  0  0  0  0
 10 11  1  0  0  0  0
  7 11  1  0  0  0  0
 11 12  1  0  0  0  0
 12 13  4  0  0  0  0
 13 14  4  0  0  0  0
 14 15  4  0  0  0  0
 15 16  1  0  0  0  0
 16 17  1  0  0  0  0
 16 18  2  0  0  0  0
 15 19  4  0  0  0  0
 19 20  1  0  0  0  0
 20 21  1  0  0  0  0
 21 22  4  0  0  0  0
 22 23  4  0  0  0  0
 23 24  4  0  0  0  0
 24 25  1  0  0  0  0
 25 26  1  0  0  0  0
 26 27  4  0  0  0  0
 27 28  4  0  0  0  0
 28 29  4  0  0  0  0
 29 30  4  0  0  0  0
 30 31  4  0  0  0  0
 26 31  4  0  0  0  0
 24 32  4  0  0  0  0
 32 33  4  0  0  0  0
 21 33  4  0  0  0  0
 19 34  4  0  0  0  0
 12 34  4  0  0  0  0
M  END
>  <CdId>
711

>  <Mol Weight>
456.502

>  <Formula>
C26H24N4O4

>  <Molecule ChEMBL ID>
CHEMBL4242598

>  <Molecule Max Phase>
None

>  <Molecular Weight>
456.5

>  <#RO5 Violations>
0

>  <AlogP>
3.74

>  <Compound Key>
16

>  <Standard Type>
IC50

>  <Standard Relation>
'='

>  <Standard Value>
100.0

>  <Standard Units>
nM

$$$$

  Mrv2114 03112311372D          

 37 40  0  0  1  0            999 V2000
    6.2102    0.2854    0.0000 C   0  0  0  0  0  0  0  0  0  0  0  0
    5.4957    0.6979    0.0000 C   0  0  0  0  0  0  0  0  0  0  0  0
    5.0832   -0.0165    0.0000 C   0  0  0  0  0  0  0  0  0  0  0  0
    5.9082    1.4124    0.0000 O   0  0  0  0  0  0  0  0  0  0  0  0
    4.7812    1.1104    0.0000 C   0  0  0  0  0  0  0  0  0  0  0  0
    4.7812    1.9354    0.0000 N   0  0  0  0  0  0  0  0  0  0  0  0
    4.0668    2.3479    0.0000 C   0  0  0  0  0  0  0  0  0  0  0  0
    4.0668    3.1729    0.0000 O   0  0  0  0  0  0  0  0  0  0  0  0
    3.3523    1.9354    0.0000 N   0  0  0  0  0  0  0  0  0  0  0  0
    3.3523    1.1104    0.0000 C   0  0  0  0  0  0  0  0  0  0  0  0
    4.0668    0.6979    0.0000 O   0  0  0  0  0  0  0  0  0  0  0  0
    2.6378    0.6979    0.0000 N   0  0  0  0  0  0  0  0  0  0  0  0
    2.6378   -0.1271    0.0000 C   0  0  0  0  0  0  0  0  0  0  0  0
    3.3523   -0.5396    0.0000 C   0  0  0  0  0  0  0  0  0  0  0  0
    3.3523   -1.3646    0.0000 C   0  0  0  0  0  0  0  0  0  0  0  0
    2.6378   -1.7771    0.0000 C   0  0  0  0  0  0  0  0  0  0  0  0
    1.9233   -1.3646    0.0000 C   0  0  0  0  0  0  0  0  0  0  0  0
    1.2089   -1.7771    0.0000 C   0  0  0  0  0  0  0  0  0  0  0  0
    0.4944   -2.1896    0.0000 F   0  0  0  0  0  0  0  0  0  0  0  0
    1.6214   -2.4915    0.0000 F   0  0  0  0  0  0  0  0  0  0  0  0
    0.7964   -1.0626    0.0000 F   0  0  0  0  0  0  0  0  0  0  0  0
    1.9233   -0.5396    0.0000 C   0  0  0  0  0  0  0  0  0  0  0  0
    1.9233    1.1104    0.0000 C   0  0  0  0  0  0  0  0  0  0  0  0
    1.9233    1.9354    0.0000 C   0  0  0  0  0  0  0  0  0  0  0  0
    1.1387    2.1904    0.0000 C   0  0  0  0  0  0  0  0  0  0  0  0
    0.8838    2.9750    0.0000 O   0  0  0  0  0  0  0  0  0  0  0  0
    0.6538    1.5229    0.0000 C   0  0  0  0  0  0  0  0  0  0  0  0
    1.1387    0.8555    0.0000 C   0  0  0  0  0  0  0  0  0  0  0  0
    2.6378    2.3479    0.0000 C   0  0  1  0  0  0  0  0  0  0  0  0
    2.6378    3.1729    0.0000 C   0  0  0  0  0  0  0  0  0  0  0  0
    1.9233    3.5854    0.0000 C   0  0  0  0  0  0  0  0  0  0  0  0
    1.9233    4.4104    0.0000 C   0  0  0  0  0  0  0  0  0  0  0  0
    2.6378    4.8229    0.0000 C   0  0  0  0  0  0  0  0  0  0  0  0
    2.6378    5.6479    0.0000 C   0  0  0  0  0  0  0  0  0  0  0  0
    2.6378    6.4729    0.0000 N   0  0  0  0  0  0  0  0  0  0  0  0
    3.3523    4.4104    0.0000 C   0  0  0  0  0  0  0  0  0  0  0  0
    3.3523    3.5854    0.0000 C   0  0  0  0  0  0  0  0  0  0  0  0
  1  2  1  0  0  0  0
  2  3  1  0  0  0  0
  2  4  1  0  0  0  0
  2  5  1  0  0  0  0
  5  6  1  0  0  0  0
  6  7  1  0  0  0  0
  7  8  2  0  0  0  0
  7  9  1  0  0  0  0
  9 10  1  0  0  0  0
 10 11  2  0  0  0  0
 10 12  1  0  0  0  0
 12 13  1  0  0  0  0
 13 14  4  0  0  0  0
 14 15  4  0  0  0  0
 15 16  4  0  0  0  0
 16 17  4  0  0  0  0
 17 18  1  0  0  0  0
 18 19  1  0  0  0  0
 18 20  1  0  0  0  0
 18 21  1  0  0  0  0
 17 22  4  0  0  0  0
 13 22  4  0  0  0  0
 12 23  1  0  0  0  0
 23 24  2  0  0  0  0
 24 25  1  0  0  0  0
 25 26  2  0  0  0  0
 25 27  1  0  0  0  0
 27 28  1  0  0  0  0
 23 28  1  0  0  0  0
 29 24  1  0  0  0  0
 29  9  1  0  0  0  0
 29 30  1  1  0  0  0
 30 31  4  0  0  0  0
 31 32  4  0  0  0  0
 32 33  4  0  0  0  0
 33 34  1  0  0  0  0
 34 35  3  0  0  0  0
 33 36  4  0  0  0  0
 36 37  4  0  0  0  0
 30 37  4  0  0  0  0
M  END
>  <CdId>
712

>  <Mol Weight>
512.489

>  <Formula>
C26H23F3N4O4

>  <Molecule ChEMBL ID>
CHEMBL4112323

>  <Molecule Max Phase>
None

>  <Molecular Weight>
512.49

>  <#RO5 Violations>
1

>  <AlogP>
4.66

>  <Compound Key>
BDBM211836

>  <Standard Type>
IC50

>  <Standard Relation>
'>'

>  <Standard Value>
50000.0

>  <Standard Units>
nM

$$$$

  Mrv2114 03112311372D          

 31 34  0  0  1  0            999 V2000
    1.6834    1.3500    0.0000 C   0  0  0  0  0  0  0  0  0  0  0  0
    2.3346    0.8434    0.0000 N   0  0  0  0  0  0  0  0  0  0  0  0
    3.1271    1.0725    0.0000 C   0  0  0  0  0  0  0  0  0  0  0  0
    3.4077    1.8483    0.0000 O   0  0  0  0  0  0  0  0  0  0  0  0
    3.5899    0.3895    0.0000 N   0  0  0  0  0  0  0  0  0  0  0  0
    4.4145    0.3624    0.0000 C   0  0  0  0  0  0  0  0  0  0  0  0
    4.8502    1.0630    0.0000 C   0  0  0  0  0  0  0  0  0  0  0  0
    4.4613    1.7906    0.0000 C   0  0  0  0  0  0  0  0  0  0  0  0
    4.8971    2.4911    0.0000 C   0  0  0  0  0  0  0  0  0  0  0  0
    4.5082    3.2188    0.0000 Cl  0  0  0  0  0  0  0  0  0  0  0  0
    5.7216    2.4641    0.0000 C   0  0  0  0  0  0  0  0  0  0  0  0
    6.1105    1.7364    0.0000 C   0  0  0  0  0  0  0  0  0  0  0  0
    5.6747    1.0359    0.0000 C   0  0  0  0  0  0  0  0  0  0  0  0
    6.0636    0.3083    0.0000 F   0  0  0  0  0  0  0  0  0  0  0  0
    3.0834   -0.2617    0.0000 C   0  0  0  0  0  0  0  0  0  0  0  0
    3.3124   -1.0543    0.0000 O   0  0  0  0  0  0  0  0  0  0  0  0
    2.3075    0.0188    0.0000 C   0  0  2  0  0  0  0  0  0  0  0  0
    2.2804   -0.8057    0.0000 C   0  0  0  0  0  0  0  0  0  0  0  0
    2.9316   -1.3123    0.0000 O   0  0  0  0  0  0  0  0  0  0  0  0
    1.4879   -1.0348    0.0000 N   0  0  0  0  0  0  0  0  0  0  0  0
    1.2073   -1.8106    0.0000 C   0  0  0  0  0  0  0  0  0  0  0  0
    0.3952   -1.9556    0.0000 C   0  0  0  0  0  0  0  0  0  0  0  0
    0.1146   -2.7314    0.0000 O   0  0  0  0  0  0  0  0  0  0  0  0
   -0.1364   -1.3247    0.0000 O   0  0  0  0  0  0  0  0  0  0  0  0
    1.0251   -0.3518    0.0000 C   0  0  0  0  0  0  0  0  0  0  0  0
    0.2079   -0.2387    0.0000 C   0  0  0  0  0  0  0  0  0  0  0  0
   -0.1027    0.5256    0.0000 C   0  0  0  0  0  0  0  0  0  0  0  0
    0.4038    1.1768    0.0000 C   0  0  0  0  0  0  0  0  0  0  0  0
    0.0932    1.9411    0.0000 Cl  0  0  0  0  0  0  0  0  0  0  0  0
    1.2210    1.0637    0.0000 C   0  0  0  0  0  0  0  0  0  0  0  0
    1.5317    0.2994    0.0000 C   0  0  0  0  0  0  0  0  0  0  0  0
  1  2  1  0  0  0  0
  2  3  1  0  0  0  0
  3  4  2  0  0  0  0
  3  5  1  0  0  0  0
  5  6  1  0  0  0  0
  6  7  1  0  0  0  0
  7  8  4  0  0  0  0
  8  9  4  0  0  0  0
  9 10  1  0  0  0  0
  9 11  4  0  0  0  0
 11 12  4  0  0  0  0
 12 13  4  0  0  0  0
  7 13  4  0  0  0  0
 13 14  1  0  0  0  0
  5 15  1  0  0  0  0
 15 16  2  0  0  0  0
 17 15  1  0  0  0  0
 17  2  1  6  0  0  0
 17 18  1  0  0  0  0
 18 19  2  0  0  0  0
 18 20  1  0  0  0  0
 20 21  1  0  0  0  0
 21 22  1  0  0  0  0
 22 23  2  0  0  0  0
 22 24  1  0  0  0  0
 20 25  1  0  0  0  0
 25 26  4  0  0  0  0
 26 27  4  0  0  0  0
 27 28  4  0  0  0  0
 28 29  1  0  0  0  0
 28 30  4  0  0  0  0
 30 31  4  0  0  0  0
 25 31  4  0  0  0  0
 17 31  1  0  0  0  0
M  END
>  <CdId>
713

>  <Mol Weight>
466.25

>  <Formula>
C20H14Cl2FN3O5

>  <Molecule ChEMBL ID>
CHEMBL2042239

>  <Molecule Max Phase>
None

>  <Molecular Weight>
466.25

>  <#RO5 Violations>
0

>  <AlogP>
2.85

>  <Compound Key>
(S)-17a

>  <Standard Type>
IC50

>  <Standard Relation>
'>'

>  <Standard Value>
10000.0

>  <Standard Units>
nM

$$$$

  Mrv2114 03112311372D          

 44 49  0  0  1  0            999 V2000
    6.5141    2.8901    0.0000 O   0  0  0  0  0  0  0  0  0  0  0  0
    5.7007    2.7522    0.0000 C   0  0  0  0  0  0  0  0  0  0  0  0
    5.1746    3.3877    0.0000 N   0  0  0  0  0  0  0  0  0  0  0  0
    5.4619    4.1611    0.0000 C   0  0  0  0  0  0  0  0  0  0  0  0
    4.9358    4.7966    0.0000 C   0  0  0  0  0  0  0  0  0  0  0  0
    4.1224    4.6587    0.0000 N   0  0  0  0  0  0  0  0  0  0  0  0
    3.5964    5.2942    0.0000 C   0  0  0  0  0  0  0  0  0  0  0  0
    3.8837    6.0676    0.0000 C   0  0  0  0  0  0  0  0  0  0  0  0
    3.3576    6.7030    0.0000 C   0  0  0  0  0  0  0  0  0  0  0  0
    2.8315    7.3385    0.0000 F   0  0  0  0  0  0  0  0  0  0  0  0
    2.7221    6.1770    0.0000 F   0  0  0  0  0  0  0  0  0  0  0  0
    3.9931    7.2291    0.0000 F   0  0  0  0  0  0  0  0  0  0  0  0
    4.6971    6.2054    0.0000 C   0  0  0  0  0  0  0  0  0  0  0  0
    5.2232    5.5699    0.0000 C   0  0  0  0  0  0  0  0  0  0  0  0
    6.0366    5.7078    0.0000 Cl  0  0  0  0  0  0  0  0  0  0  0  0
    5.4134    1.9789    0.0000 C   0  0  0  0  0  0  0  0  0  0  0  0
    5.9395    1.3434    0.0000 C   0  0  0  0  0  0  0  0  0  0  0  0
    5.6522    0.5700    0.0000 C   0  0  0  0  0  0  0  0  0  0  0  0
    4.8388    0.4322    0.0000 C   0  0  0  0  0  0  0  0  0  0  0  0
    4.3127    1.0676    0.0000 C   0  0  0  0  0  0  0  0  0  0  0  0
    4.6000    1.8410    0.0000 C   0  0  0  0  0  0  0  0  0  0  0  0
    3.5457    0.7637    0.0000 C   0  0  0  0  0  0  0  0  0  0  0  0
    2.8147    0.3812    0.0000 C   0  0  0  0  0  0  0  0  0  0  0  0
    2.1180    0.8230    0.0000 C   0  0  0  0  0  0  0  0  0  0  0  0
    2.1523    1.6473    0.0000 S   0  0  0  0  0  0  0  0  0  0  0  0
    1.3346    1.5379    0.0000 O   0  0  0  0  0  0  0  0  0  0  0  0
    1.9026    2.4336    0.0000 O   0  0  0  0  0  0  0  0  0  0  0  0
    2.8833    2.0298    0.0000 C   0  0  0  0  0  0  0  0  0  0  0  0
    3.5800    1.5880    0.0000 C   0  0  0  0  0  0  0  0  0  0  0  0
    3.5978   -0.0597    0.0000 C   0  0  2  0  0  0  0  0  0  0  0  0
    2.9623   -0.5858    0.0000 C   0  0  0  0  0  0  0  0  0  0  0  0
    2.6750   -1.3591    0.0000 C   0  0  0  0  0  0  0  0  0  0  0  0
    2.1489   -0.7236    0.0000 C   0  0  0  0  0  0  0  0  0  0  0  0
    4.3970   -0.2646    0.0000 N   0  0  0  0  0  0  0  0  0  0  0  0
    4.7009   -1.0315    0.0000 S   0  0  0  0  0  0  0  0  0  0  0  0
    3.9340   -1.3355    0.0000 O   0  0  0  0  0  0  0  0  0  0  0  0
    5.4679   -0.7276    0.0000 O   0  0  0  0  0  0  0  0  0  0  0  0
    5.0049   -1.7985    0.0000 C   0  0  0  0  0  0  0  0  0  0  0  0
    5.8211   -1.9187    0.0000 C   0  0  0  0  0  0  0  0  0  0  0  0
    6.1250   -2.6857    0.0000 C   0  0  0  0  0  0  0  0  0  0  0  0
    5.6128   -3.3324    0.0000 C   0  0  0  0  0  0  0  0  0  0  0  0
    5.9168   -4.0994    0.0000 F   0  0  0  0  0  0  0  0  0  0  0  0
    4.7966   -3.2122    0.0000 C   0  0  0  0  0  0  0  0  0  0  0  0
    4.4927   -2.4452    0.0000 C   0  0  0  0  0  0  0  0  0  0  0  0
  1  2  2  0  0  0  0
  2  3  1  0  0  0  0
  3  4  1  0  0  0  0
  4  5  1  0  0  0  0
  5  6  4  0  0  0  0
  6  7  4  0  0  0  0
  7  8  4  0  0  0  0
  8  9  1  0  0  0  0
  9 10  1  0  0  0  0
  9 11  1  0  0  0  0
  9 12  1  0  0  0  0
  8 13  4  0  0  0  0
 13 14  4  0  0  0  0
  5 14  4  0  0  0  0
 14 15  1  0  0  0  0
  2 16  1  0  0  0  0
 16 17  4  0  0  0  0
 17 18  4  0  0  0  0
 18 19  4  0  0  0  0
 19 20  4  0  0  0  0
 20 21  4  0  0  0  0
 16 21  4  0  0  0  0
 20 22  1  0  0  0  0
 22 23  1  0  0  0  0
 23 24  1  0  0  0  0
 24 25  1  0  0  0  0
 25 26  2  0  0  0  0
 25 27  2  0  0  0  0
 25 28  1  0  0  0  0
 28 29  1  0  0  0  0
 22 29  1  0  0  0  0
 30 22  1  0  0  0  0
 30 31  1  1  0  0  0
 31 32  1  0  0  0  0
 32 33  1  0  0  0  0
 31 33  1  0  0  0  0
 30 34  1  0  0  0  0
 19 34  1  0  0  0  0
 34 35  1  0  0  0  0
 35 36  2  0  0  0  0
 35 37  2  0  0  0  0
 35 38  1  0  0  0  0
 38 39  4  0  0  0  0
 39 40  4  0  0  0  0
 40 41  4  0  0  0  0
 41 42  1  0  0  0  0
 41 43  4  0  0  0  0
 43 44  4  0  0  0  0
 38 44  4  0  0  0  0
M  END
>  <CdId>
714

>  <Mol Weight>
672.11

>  <Formula>
C29H26ClF4N3O5S2

>  <Molecule ChEMBL ID>
CHEMBL4537788

>  <Molecule Name>
BAY-784

>  <Molecule Max Phase>
None

>  <Molecular Weight>
672.12

>  <#RO5 Violations>
2

>  <AlogP>
5.26

>  <Compound Key>
5a

>  <Standard Type>
IC50

>  <Standard Relation>
'='

>  <Standard Value>
1000.0

>  <Standard Units>
nM

$$$$

  Mrv2114 03112311372D          

 47 51  0  0  1  0            999 V2000
   -3.3165   -4.7102    0.0000 C   0  0  0  0  0  0  0  0  0  0  0  0
   -2.5894   -4.3202    0.0000 C   0  0  0  0  0  0  0  0  0  0  0  0
   -2.1995   -5.0472    0.0000 C   0  0  0  0  0  0  0  0  0  0  0  0
   -2.9794   -3.5932    0.0000 O   0  0  0  0  0  0  0  0  0  0  0  0
   -1.8624   -3.9303    0.0000 C   0  0  0  0  0  0  0  0  0  0  0  0
   -1.8367   -3.1057    0.0000 N   0  0  0  0  0  0  0  0  0  0  0  0
   -2.4887   -2.6001    0.0000 C   0  0  0  0  0  0  0  0  0  0  0  0
   -3.2809   -2.8304    0.0000 O   0  0  0  0  0  0  0  0  0  0  0  0
   -2.2093   -1.8239    0.0000 C   0  0  2  0  0  0  0  0  0  0  0  0
   -2.6732   -1.1416    0.0000 F   0  0  0  0  0  0  0  0  0  0  0  0
   -1.3847   -1.8496    0.0000 C   0  0  0  0  0  0  0  0  0  0  0  0
   -1.1544   -2.6418    0.0000 C   0  0  1  0  0  0  0  0  0  0  0  0
   -0.3781   -2.9211    0.0000 C   0  0  0  0  0  0  0  0  0  0  0  0
   -0.2319   -3.7331    0.0000 O   0  0  0  0  0  0  0  0  0  0  0  0
    0.2519   -2.3885    0.0000 N   0  0  0  0  0  0  0  0  0  0  0  0
    0.1913   -1.5657    0.0000 C   0  0  0  0  0  0  0  0  0  0  0  0
    0.9551   -1.2539    0.0000 C   0  0  0  0  0  0  0  0  0  0  0  0
    1.4877   -1.8839    0.0000 C   0  0  1  0  0  0  0  0  0  0  0  0
    1.8467   -1.1411    0.0000 S   0  0  0  0  0  0  0  0  0  0  0  0
    2.5737   -0.7511    0.0000 O   0  0  0  0  0  0  0  0  0  0  0  0
    1.1038   -0.7822    0.0000 O   0  0  0  0  0  0  0  0  0  0  0  0
    2.2056   -0.3983    0.0000 C   0  0  0  0  0  0  0  0  0  0  0  0
    1.7417    0.2840    0.0000 C   0  0  0  0  0  0  0  0  0  0  0  0
    2.1007    1.0268    0.0000 C   0  0  0  0  0  0  0  0  0  0  0  0
    2.9234    1.0874    0.0000 C   0  0  0  0  0  0  0  0  0  0  0  0
    3.2824    1.8302    0.0000 F   0  0  0  0  0  0  0  0  0  0  0  0
    3.3873    0.4051    0.0000 C   0  0  0  0  0  0  0  0  0  0  0  0
    3.0284   -0.3377    0.0000 C   0  0  0  0  0  0  0  0  0  0  0  0
    2.3123   -1.9097    0.0000 C   0  0  0  0  0  0  0  0  0  0  0  0
    2.7469   -1.2084    0.0000 C   0  0  0  0  0  0  0  0  0  0  0  0
    3.5715   -1.2342    0.0000 C   0  0  0  0  0  0  0  0  0  0  0  0
    3.9615   -1.9612    0.0000 C   0  0  0  0  0  0  0  0  0  0  0  0
    4.7861   -1.9870    0.0000 C   0  0  0  0  0  0  0  0  0  0  0  0
    4.8119   -1.1624    0.0000 F   0  0  0  0  0  0  0  0  0  0  0  0
    4.7603   -2.8116    0.0000 C   0  0  0  0  0  0  0  0  0  0  0  0
    4.7346   -3.6362    0.0000 F   0  0  0  0  0  0  0  0  0  0  0  0
    3.9358   -2.7858    0.0000 F   0  0  0  0  0  0  0  0  0  0  0  0
    5.5849   -2.8373    0.0000 F   0  0  0  0  0  0  0  0  0  0  0  0
    5.6107   -2.0127    0.0000 C   0  0  0  0  0  0  0  0  0  0  0  0
    6.4353   -2.0385    0.0000 F   0  0  0  0  0  0  0  0  0  0  0  0
    6.0746   -2.6950    0.0000 F   0  0  0  0  0  0  0  0  0  0  0  0
    5.6365   -1.1881    0.0000 F   0  0  0  0  0  0  0  0  0  0  0  0
    3.5269   -2.6624    0.0000 C   0  0  0  0  0  0  0  0  0  0  0  0
    2.7023   -2.6367    0.0000 C   0  0  0  0  0  0  0  0  0  0  0  0
    2.2677   -3.3379    0.0000 C   0  0  0  0  0  0  0  0  0  0  0  0
    1.4431   -3.3122    0.0000 C   0  0  0  0  0  0  0  0  0  0  0  0
    1.0531   -2.5852    0.0000 C   0  0  1  0  0  0  0  0  0  0  0  0
  1  2  1  0  0  0  0
  2  3  1  0  0  0  0
  2  4  1  0  0  0  0
  2  5  1  0  0  0  0
  5  6  1  0  0  0  0
  6  7  1  0  0  0  0
  7  8  2  0  0  0  0
  9  7  1  0  0  0  0
  9 10  1  6  0  0  0
  9 11  1  0  0  0  0
 12 11  1  0  0  0  0
 12  6  1  0  0  0  0
 12 13  1  1  0  0  0
 13 14  2  0  0  0  0
 13 15  1  0  0  0  0
 15 16  1  0  0  0  0
 16 17  1  0  0  0  0
 18 17  1  0  0  0  0
 18 19  1  6  0  0  0
 19 20  2  0  0  0  0
 19 21  2  0  0  0  0
 19 22  1  0  0  0  0
 22 23  4  0  0  0  0
 23 24  4  0  0  0  0
 24 25  4  0  0  0  0
 25 26  1  0  0  0  0
 25 27  4  0  0  0  0
 27 28  4  0  0  0  0
 22 28  4  0  0  0  0
 18 29  1  0  0  0  0
 29 30  4  0  0  0  0
 30 31  4  0  0  0  0
 31 32  4  0  0  0  0
 32 33  1  0  0  0  0
 33 34  1  0  0  0  0
 33 35  1  0  0  0  0
 35 36  1  0  0  0  0
 35 37  1  0  0  0  0
 35 38  1  0  0  0  0
 33 39  1  0  0  0  0
 39 40  1  0  0  0  0
 39 41  1  0  0  0  0
 39 42  1  0  0  0  0
 32 43  4  0  0  0  0
 43 44  4  0  0  0  0
 29 44  4  0  0  0  0
 44 45  1  0  0  0  0
 45 46  1  0  0  0  0
 47 46  1  0  0  0  0
 47 15  1  1  0  0  0
 18 47  1  0  0  0  0
M  END
>  <CdId>
715

>  <Mol Weight>
700.62

>  <Formula>
C30H29F9N2O5S

>  <Molecule ChEMBL ID>
CHEMBL4782326

>  <Molecule Max Phase>
None

>  <Molecular Weight>
700.62

>  <#RO5 Violations>
2

>  <AlogP>
5.04

>  <Compound Key>
18

>  <Standard Type>
IC50

>  <Standard Relation>
'>'

>  <Standard Value>
20000.0

>  <Standard Units>
nM

$$$$

  Mrv2114 03112311372D          

 47 49  0  0  0  0            999 V2000
    0.0000   -0.8250    0.0000 C   0  0  0  0  0  0  0  0  0  0  0  0
    0.0000    0.0000    0.0000 S   0  0  0  0  0  0  0  0  0  0  0  0
    0.0000    0.8250    0.0000 O   0  0  0  0  0  0  0  0  0  0  0  0
    0.8250   -0.0000    0.0000 O   0  0  0  0  0  0  0  0  0  0  0  0
   -0.8250    0.0000    0.0000 O   0  0  0  0  0  0  0  0  0  0  0  0
    7.5141   -4.1475    0.0000 H   0  0  0  0  0  0  0  0  0  0  0  0
    8.3211   -3.9760    0.0000 C   0  0  0  0  0  0  0  0  0  0  0  0
    8.8731   -4.5891    0.0000 H   0  0  0  0  0  0  0  0  0  0  0  0
    8.5760   -3.1914    0.0000 C   0  0  0  0  0  0  0  0  0  0  0  0
    8.0240   -2.5783    0.0000 C   0  0  0  0  0  0  0  0  0  0  0  0
    8.2789   -1.7937    0.0000 O   0  0  0  0  0  0  0  0  0  0  0  0
    7.2170   -2.7498    0.0000 N   0  0  0  0  0  0  0  0  0  0  0  0
    6.6650   -2.1367    0.0000 C   0  0  0  0  0  0  0  0  0  0  0  0
    6.9199   -1.3521    0.0000 C   0  0  0  0  0  0  0  0  0  0  0  0
    6.3679   -0.7390    0.0000 C   0  0  0  0  0  0  0  0  0  0  0  0
    6.6228    0.0456    0.0000 N   0  0  0  0  0  0  0  0  0  0  0  0
    6.0708    0.6587    0.0000 C   0  0  0  0  0  0  0  0  0  0  0  0
    5.2638    0.4872    0.0000 N   0  0  0  0  0  0  0  0  0  0  0  0
    4.7118    1.1003    0.0000 C   0  0  0  0  0  0  0  0  0  0  0  0
    4.9667    1.8849    0.0000 C   0  0  0  0  0  0  0  0  0  0  0  0
    5.7737    2.0564    0.0000 C   0  0  0  0  0  0  0  0  0  0  0  0
    6.0286    2.8410    0.0000 C   0  0  0  0  0  0  0  0  0  0  0  0
    5.5437    3.5085    0.0000 C   0  0  0  0  0  0  0  0  0  0  0  0
    6.0286    4.1759    0.0000 N   0  0  0  0  0  0  0  0  0  0  0  0
    5.7737    4.9605    0.0000 C   0  0  0  0  0  0  0  0  0  0  0  0
    6.5583    5.2155    0.0000 H   0  0  0  0  0  0  0  0  0  0  0  0
    5.5187    5.7452    0.0000 H   0  0  0  0  0  0  0  0  0  0  0  0
    4.9891    4.7056    0.0000 H   0  0  0  0  0  0  0  0  0  0  0  0
    6.8132    3.9210    0.0000 C   0  0  0  0  0  0  0  0  0  0  0  0
    7.5277    4.3335    0.0000 C   0  0  0  0  0  0  0  0  0  0  0  0
    8.2422    3.9210    0.0000 C   0  0  0  0  0  0  0  0  0  0  0  0
    8.2422    3.0960    0.0000 C   0  0  0  0  0  0  0  0  0  0  0  0
    7.5277    2.6835    0.0000 C   0  0  0  0  0  0  0  0  0  0  0  0
    6.8132    3.0960    0.0000 C   0  0  0  0  0  0  0  0  0  0  0  0
    6.3257    1.4433    0.0000 N   0  0  0  0  0  0  0  0  0  0  0  0
    5.5609   -0.9105    0.0000 C   0  0  0  0  0  0  0  0  0  0  0  0
    5.0089   -0.2974    0.0000 O   0  0  0  0  0  0  0  0  0  0  0  0
    4.2019   -0.4690    0.0000 C   0  0  0  0  0  0  0  0  0  0  0  0
    5.3060   -1.6952    0.0000 C   0  0  0  0  0  0  0  0  0  0  0  0
    5.8580   -2.3083    0.0000 C   0  0  0  0  0  0  0  0  0  0  0  0
    5.6031   -3.0929    0.0000 N   0  0  0  0  0  0  0  0  0  0  0  0
    6.1551   -3.7060    0.0000 C   0  0  0  0  0  0  0  0  0  0  0  0
    4.7961   -3.2644    0.0000 C   0  0  0  0  0  0  0  0  0  0  0  0
    4.5411   -4.0490    0.0000 C   0  0  0  0  0  0  0  0  0  0  0  0
    3.7342   -4.2206    0.0000 N   0  0  0  0  0  0  0  0  0  0  0  0
    3.4792   -5.0052    0.0000 C   0  0  0  0  0  0  0  0  0  0  0  0
    3.1821   -3.6075    0.0000 C   0  0  0  0  0  0  0  0  0  0  0  0
  1  2  1  0  0  0  0
  2  3  2  0  0  0  0
  2  4  2  0  0  0  0
  2  5  1  0  0  0  0
  6  7  1  0  0  0  0
  7  8  1  0  0  0  0
  7  9  2  0  0  0  0
  9 10  1  0  0  0  0
 10 11  2  0  0  0  0
 10 12  1  0  0  0  0
 12 13  1  0  0  0  0
 13 14  4  0  0  0  0
 14 15  4  0  0  0  0
 15 16  1  0  0  0  0
 16 17  1  0  0  0  0
 17 18  4  0  0  0  0
 18 19  4  0  0  0  0
 19 20  4  0  0  0  0
 20 21  4  0  0  0  0
 21 22  1  0  0  0  0
 22 23  4  0  0  0  0
 23 24  4  0  0  0  0
 24 25  1  0  0  0  0
 25 26  1  0  0  0  0
 25 27  1  0  0  0  0
 25 28  1  0  0  0  0
 24 29  4  0  0  0  0
 29 30  4  0  0  0  0
 30 31  4  0  0  0  0
 31 32  4  0  0  0  0
 32 33  4  0  0  0  0
 33 34  4  0  0  0  0
 22 34  4  0  0  0  0
 29 34  4  0  0  0  0
 21 35  4  0  0  0  0
 17 35  4  0  0  0  0
 15 36  4  0  0  0  0
 36 37  1  0  0  0  0
 37 38  1  0  0  0  0
 36 39  4  0  0  0  0
 39 40  4  0  0  0  0
 13 40  4  0  0  0  0
 40 41  1  0  0  0  0
 41 42  1  0  0  0  0
 41 43  1  0  0  0  0
 43 44  1  0  0  0  0
 44 45  1  0  0  0  0
 45 46  1  0  0  0  0
 45 47  1  0  0  0  0
M  ISO  5   6   2   8   2  26   2  27   2  28   2
M  END
>  <CdId>
716

>  <Mol Weight>
600.75

>  <Formula>
C29H37N7O5S

>  <Molecule ChEMBL ID>
CHEMBL4784911

>  <Molecule Max Phase>
None

>  <Molecular Weight>
600.76

>  <#RO5 Violations>
0

>  <AlogP>
4.51

>  <Compound Key>
Dosimertinib

>  <Standard Type>
IC50

>  <Standard Relation>
'='

>  <Standard Value>
29300.0

>  <Standard Units>
nM

$$$$

  Mrv2114 03112311372D          

 41 46  0  0  0  0            999 V2000
    5.2806   -0.7622    0.0000 C   0  0  0  0  0  0  0  0  0  0  0  0
    4.5661   -0.3497    0.0000 C   0  0  0  0  0  0  0  0  0  0  0  0
    3.8517   -0.7622    0.0000 C   0  0  0  0  0  0  0  0  0  0  0  0
    3.8517   -1.5872    0.0000 C   0  0  0  0  0  0  0  0  0  0  0  0
    4.5661   -1.9997    0.0000 C   0  0  0  0  0  0  0  0  0  0  0  0
    5.2806   -1.5872    0.0000 Cl  0  0  0  0  0  0  0  0  0  0  0  0
    4.5661   -2.8247    0.0000 C   0  0  0  0  0  0  0  0  0  0  0  0
    3.8517   -3.2372    0.0000 C   0  0  0  0  0  0  0  0  0  0  0  0
    3.8517   -4.0622    0.0000 C   0  0  0  0  0  0  0  0  0  0  0  0
    3.1372   -4.4747    0.0000 N   0  0  0  0  0  0  0  0  0  0  0  0
    4.5661   -4.4747    0.0000 O   0  0  0  0  0  0  0  0  0  0  0  0
    3.1372   -2.8247    0.0000 C   0  0  0  0  0  0  0  0  0  0  0  0
    2.3526   -3.0797    0.0000 N   0  0  0  0  0  0  0  0  0  0  0  0
    1.8676   -2.4122    0.0000 C   0  0  0  0  0  0  0  0  0  0  0  0
    1.0472   -2.3260    0.0000 C   0  0  0  0  0  0  0  0  0  0  0  0
    0.7116   -1.5723    0.0000 C   0  0  0  0  0  0  0  0  0  0  0  0
   -0.1089   -1.4861    0.0000 C   0  0  0  0  0  0  0  0  0  0  0  0
   -0.9294   -1.3999    0.0000 C   0  0  0  0  0  0  0  0  0  0  0  0
   -0.1951   -2.3066    0.0000 C   0  0  0  0  0  0  0  0  0  0  0  0
   -0.0226   -0.6656    0.0000 O   0  0  0  0  0  0  0  0  0  0  0  0
    1.1965   -0.9049    0.0000 C   0  0  0  0  0  0  0  0  0  0  0  0
    2.0170   -0.9911    0.0000 C   0  0  0  0  0  0  0  0  0  0  0  0
    2.3526   -1.7448    0.0000 C   0  0  0  0  0  0  0  0  0  0  0  0
    3.1372   -1.9997    0.0000 C   0  0  0  0  0  0  0  0  0  0  0  0
    3.1372   -0.3497    0.0000 C   0  0  0  0  0  0  0  0  0  0  0  0
    3.1372    0.4753    0.0000 C   0  0  0  0  0  0  0  0  0  0  0  0
    3.8517    0.8878    0.0000 C   0  0  0  0  0  0  0  0  0  0  0  0
    4.5661    0.4753    0.0000 C   0  0  0  0  0  0  0  0  0  0  0  0
    5.2806    0.8878    0.0000 N   0  0  0  0  0  0  0  0  0  0  0  0
    5.2806    1.7128    0.0000 C   0  0  0  0  0  0  0  0  0  0  0  0
    4.5661    2.1253    0.0000 O   0  0  0  0  0  0  0  0  0  0  0  0
    5.9951    2.1253    0.0000 C   0  0  0  0  0  0  0  0  0  0  0  0
    6.7095    1.7128    0.0000 C   0  0  0  0  0  0  0  0  0  0  0  0
    7.4240    2.1253    0.0000 C   0  0  0  0  0  0  0  0  0  0  0  0
    7.4240    2.9503    0.0000 Cl  0  0  0  0  0  0  0  0  0  0  0  0
    8.1385    1.7128    0.0000 C   0  0  0  0  0  0  0  0  0  0  0  0
    8.1385    0.8878    0.0000 C   0  0  0  0  0  0  0  0  0  0  0  0
    7.4240    0.4753    0.0000 C   0  0  0  0  0  0  0  0  0  0  0  0
    6.7095    0.8878    0.0000 N   0  0  0  0  0  0  0  0  0  0  0  0
    5.9951    0.4753    0.0000 C   0  0  0  0  0  0  0  0  0  0  0  0
    5.9951   -0.3497    0.0000 O   0  0  0  0  0  0  0  0  0  0  0  0
  1  2  1  0  0  0  0
  2  3  4  0  0  0  0
  3  4  1  0  0  0  0
  4  5  4  0  0  0  0
  5  6  1  0  0  0  0
  5  7  4  0  0  0  0
  7  8  4  0  0  0  0
  8  9  1  0  0  0  0
  9 10  1  0  0  0  0
  9 11  2  0  0  0  0
  8 12  4  0  0  0  0
 12 13  4  0  0  0  0
 13 14  4  0  0  0  0
 14 15  4  0  0  0  0
 15 16  4  0  0  0  0
 16 17  1  0  0  0  0
 17 18  1  0  0  0  0
 17 19  1  0  0  0  0
 17 20  1  0  0  0  0
 16 21  4  0  0  0  0
 21 22  4  0  0  0  0
 22 23  4  0  0  0  0
 14 23  4  0  0  0  0
 23 24  4  0  0  0  0
  4 24  4  0  0  0  0
 12 24  4  0  0  0  0
  3 25  4  0  0  0  0
 25 26  4  0  0  0  0
 26 27  4  0  0  0  0
 27 28  4  0  0  0  0
  2 28  4  0  0  0  0
 28 29  1  0  0  0  0
 29 30  4  0  0  0  0
 30 31  2  0  0  0  0
 30 32  4  0  0  0  0
 32 33  4  0  0  0  0
 33 34  4  0  0  0  0
 34 35  1  0  0  0  0
 34 36  4  0  0  0  0
 36 37  4  0  0  0  0
 37 38  4  0  0  0  0
 38 39  4  0  0  0  0
 33 39  4  0  0  0  0
 39 40  4  0  0  0  0
 29 40  4  0  0  0  0
 40 41  2  0  0  0  0
M  STY  1   1 DAT
M  SAL   1  1  13
M  SDT   1 MRV_IMPLICIT_H                                        
M  SDD   1     0.0000    0.0000    DR    ALL  0       0  
M  SED   1 IMPL_H1
M  END
>  <CdId>
717

>  <Mol Weight>
587.46

>  <Formula>
C31H24Cl2N4O4

>  <Molecule ChEMBL ID>
CHEMBL3928976

>  <Molecule Max Phase>
None

>  <Molecular Weight>
587.46

>  <#RO5 Violations>
2

>  <AlogP>
5.69

>  <Compound Key>
6d; BMS-986143

>  <Standard Type>
IC50

>  <Standard Relation>
'='

>  <Standard Value>
3200.0

>  <Standard Units>
nM

$$$$

  Mrv2114 03112311372D          

 26 29  0  0  0  0            999 V2000
    3.3722   -4.6332    0.0000 C   0  0  0  0  0  0  0  0  0  0  0  0
    3.0366   -3.8795    0.0000 C   0  0  0  0  0  0  0  0  0  0  0  0
    2.2296   -3.7080    0.0000 C   0  0  0  0  0  0  0  0  0  0  0  0
    2.1434   -2.8875    0.0000 C   0  0  0  0  0  0  0  0  0  0  0  0
    1.4289   -2.4750    0.0000 N   0  0  0  0  0  0  0  0  0  0  0  0
    1.4289   -1.6500    0.0000 C   0  0  0  0  0  0  0  0  0  0  0  0
    0.7145   -1.2375    0.0000 N   0  0  0  0  0  0  0  0  0  0  0  0
    0.7145   -0.4125    0.0000 C   0  0  0  0  0  0  0  0  0  0  0  0
    0.0000    0.0000    0.0000 C   0  0  0  0  0  0  0  0  0  0  0  0
   -0.7145   -0.4125    0.0000 O   0  0  0  0  0  0  0  0  0  0  0  0
    0.0000    0.8250    0.0000 C   0  0  0  0  0  0  0  0  0  0  0  0
   -0.7145    1.2375    0.0000 C   0  0  0  0  0  0  0  0  0  0  0  0
   -0.7145    2.0625    0.0000 C   0  0  0  0  0  0  0  0  0  0  0  0
    0.0000    2.4750    0.0000 C   0  0  0  0  0  0  0  0  0  0  0  0
    0.0000    3.3000    0.0000 F   0  0  0  0  0  0  0  0  0  0  0  0
    0.7145    2.0625    0.0000 C   0  0  0  0  0  0  0  0  0  0  0  0
    0.7145    1.2375    0.0000 C   0  0  0  0  0  0  0  0  0  0  0  0
    1.4289    0.0000    0.0000 N   0  0  0  0  0  0  0  0  0  0  0  0
    2.1434   -0.4125    0.0000 C   0  0  0  0  0  0  0  0  0  0  0  0
    2.8579    0.0000    0.0000 C   0  0  0  0  0  0  0  0  0  0  0  0
    3.5724   -0.4125    0.0000 C   0  0  0  0  0  0  0  0  0  0  0  0
    3.5724   -1.2375    0.0000 C   0  0  0  0  0  0  0  0  0  0  0  0
    2.8579   -1.6500    0.0000 C   0  0  0  0  0  0  0  0  0  0  0  0
    2.1434   -1.2375    0.0000 C   0  0  0  0  0  0  0  0  0  0  0  0
    2.8971   -2.5519    0.0000 N   0  0  0  0  0  0  0  0  0  0  0  0
    3.4491   -3.1650    0.0000 N   0  0  0  0  0  0  0  0  0  0  0  0
  1  2  1  0  0  0  0
  2  3  4  0  0  0  0
  3  4  4  0  0  0  0
  4  5  1  0  0  0  0
  5  6  1  0  0  0  0
  6  7  4  0  0  0  0
  7  8  4  0  0  0  0
  8  9  1  0  0  0  0
  9 10  1  0  0  0  0
  9 11  1  0  0  0  0
 11 12  4  0  0  0  0
 12 13  4  0  0  0  0
 13 14  4  0  0  0  0
 14 15  1  0  0  0  0
 14 16  4  0  0  0  0
 16 17  4  0  0  0  0
 11 17  4  0  0  0  0
  8 18  4  0  0  0  0
 18 19  4  0  0  0  0
 19 20  4  0  0  0  0
 20 21  4  0  0  0  0
 21 22  4  0  0  0  0
 22 23  4  0  0  0  0
 23 24  4  0  0  0  0
  6 24  4  0  0  0  0
 19 24  4  0  0  0  0
  4 25  4  0  0  0  0
 25 26  4  0  0  0  0
  2 26  4  0  0  0  0
M  STY  1   1 DAT
M  SAL   1  1  26
M  SDT   1 MRV_IMPLICIT_H                                        
M  SDD   1     0.0000    0.0000    DR    ALL  0       0  
M  SED   1 IMPL_H1
M  END
>  <CdId>
718

>  <Mol Weight>
349.369

>  <Formula>
C19H16FN5O

>  <Molecule ChEMBL ID>
CHEMBL3545241

>  <Molecule Name>
AC-430

>  <Molecule Max Phase>
1

>  <Molecular Weight>
349.37

>  <#RO5 Violations>
0

>  <AlogP>
3.63

>  <Compound Key>
BDBM214688

>  <Standard Type>
IC50

>  <Standard Relation>
'='

>  <Standard Value>
23100.0

>  <Standard Units>
nM

$$$$

  Mrv2114 03112311372D          

 16 19  0  0  0  0            999 V2000
    2.9197    1.6017    0.0000 C   0  0  0  0  0  0  0  0  0  0  0  0
    2.1351    1.3468    0.0000 C   0  0  0  0  0  0  0  0  0  0  0  0
    1.9316    0.5022    0.0000 C   0  0  0  0  0  0  0  0  0  0  0  0
    2.5766   -0.0122    0.0000 C   0  0  0  0  0  0  0  0  0  0  0  0
    3.3612    0.2427    0.0000 C   0  0  0  0  0  0  0  0  0  0  0  0
    3.5328    1.0497    0.0000 C   0  0  0  0  0  0  0  0  0  0  0  0
    3.8462   -0.4247    0.0000 C   0  0  0  0  0  0  0  0  0  0  0  0
    4.4295    0.1587    0.0000 C   0  0  0  0  0  0  0  0  0  0  0  0
    5.0129   -0.4247    0.0000 C   0  0  0  0  0  0  0  0  0  0  0  0
    4.4295   -1.0081    0.0000 C   0  0  0  0  0  0  0  0  0  0  0  0
    3.3612   -1.0921    0.0000 C   0  0  0  0  0  0  0  0  0  0  0  0
    2.5766   -0.8372    0.0000 N   0  0  0  0  0  0  0  0  0  0  0  0
    1.9316   -1.3516    0.0000 C   0  0  0  0  0  0  0  0  0  0  0  0
    1.1273   -1.1680    0.0000 C   0  0  0  0  0  0  0  0  0  0  0  0
    0.7693   -0.4247    0.0000 N   0  0  0  0  0  0  0  0  0  0  0  0
    1.1273    0.3186    0.0000 C   0  0  0  0  0  0  0  0  0  0  0  0
  1  2  4  0  0  0  0
  2  3  4  0  0  0  0
  3  4  4  0  0  0  0
  4  5  4  0  0  0  0
  5  6  4  0  0  0  0
  1  6  4  0  0  0  0
  5  7  1  0  0  0  0
  7  8  1  0  0  0  0
  8  9  1  0  0  0  0
  9 10  1  0  0  0  0
  7 10  1  0  0  0  0
  7 11  1  0  0  0  0
 11 12  1  0  0  0  0
  4 12  1  0  0  0  0
 12 13  1  0  0  0  0
 13 14  1  0  0  0  0
 14 15  1  0  0  0  0
 15 16  1  0  0  0  0
  3 16  1  0  0  0  0
M  END
>  <CdId>
719

>  <Mol Weight>
214.312

>  <Formula>
C14H18N2

>  <Molecule ChEMBL ID>
CHEMBL4636196

>  <Molecule Max Phase>
None

>  <Molecular Weight>
214.31

>  <#RO5 Violations>
0

>  <AlogP>
2.03

>  <Compound Key>
7u

>  <Standard Type>
IC50

>  <Standard Relation>
'>'

>  <Standard Value>
50000.0

>  <Standard Units>
nM

$$$$

  Mrv2114 03112311372D          

 27 29  0  0  1  0            999 V2000
    2.8579    0.0000    0.0000 C   0  0  0  0  0  0  0  0  0  0  0  0
    3.5724    0.4125    0.0000 C   0  0  0  0  0  0  0  0  0  0  0  0
    4.2868    0.0000    0.0000 C   0  0  0  0  0  0  0  0  0  0  0  0
    5.0013    0.4125    0.0000 C   0  0  0  0  0  0  0  0  0  0  0  0
    5.7158    0.0000    0.0000 N   0  0  0  0  0  0  0  0  0  0  0  0
    6.4302    0.4125    0.0000 C   0  0  0  0  0  0  0  0  0  0  0  0
    6.4302    1.2375    0.0000 N   0  0  0  0  0  0  0  0  0  0  0  0
    7.1447    1.6500    0.0000 C   0  0  0  0  0  0  0  0  0  0  0  0
    7.1447    2.4750    0.0000 N   0  0  0  0  0  0  0  0  0  0  0  0
    7.8592    1.2375    0.0000 N   0  0  0  0  0  0  0  0  0  0  0  0
    7.8592    0.4125    0.0000 C   0  0  0  0  0  0  0  0  0  0  0  0
    8.5737    0.0000    0.0000 C   0  0  0  0  0  0  0  0  0  0  0  0
    8.5737   -0.8250    0.0000 C   0  0  0  0  0  0  0  0  0  0  0  0
    7.8592   -1.2375    0.0000 C   0  0  0  0  0  0  0  0  0  0  0  0
    7.1447   -0.8250    0.0000 C   0  0  0  0  0  0  0  0  0  0  0  0
    6.4302   -1.2375    0.0000 C   0  0  0  0  0  0  0  0  0  0  0  0
    6.4302   -2.0625    0.0000 O   0  0  0  0  0  0  0  0  0  0  0  0
    5.7158   -0.8250    0.0000 N   0  0  0  0  0  0  0  0  0  0  0  0
    5.0013   -1.2375    0.0000 C   0  0  1  0  0  0  0  0  0  0  0  0
    4.2868   -0.8250    0.0000 C   0  0  0  0  0  0  0  0  0  0  0  0
    5.0013   -2.0625    0.0000 C   0  0  0  0  0  0  0  0  0  0  0  0
    5.7158   -2.4750    0.0000 C   0  0  0  0  0  0  0  0  0  0  0  0
    5.7158   -3.3000    0.0000 C   0  0  0  0  0  0  0  0  0  0  0  0
    5.0013   -3.7125    0.0000 C   0  0  0  0  0  0  0  0  0  0  0  0
    4.2868   -3.3000    0.0000 C   0  0  0  0  0  0  0  0  0  0  0  0
    4.2868   -2.4750    0.0000 C   0  0  0  0  0  0  0  0  0  0  0  0
    7.1447    0.0000    0.0000 C   0  0  0  0  0  0  0  0  0  0  0  0
  1  2  1  0  0  0  0
  2  3  1  0  0  0  0
  3  4  1  0  0  0  0
  4  5  1  0  0  0  0
  5  6  1  0  0  0  0
  6  7  4  0  0  0  0
  7  8  4  0  0  0  0
  8  9  1  0  0  0  0
  8 10  4  0  0  0  0
 10 11  4  0  0  0  0
 11 12  4  0  0  0  0
 12 13  4  0  0  0  0
 13 14  4  0  0  0  0
 14 15  4  0  0  0  0
 15 16  1  0  0  0  0
 16 17  2  0  0  0  0
 16 18  1  0  0  0  0
 19 18  1  0  0  0  0
 19 20  1  6  0  0  0
 19 21  1  0  0  0  0
 21 22  4  0  0  0  0
 22 23  4  0  0  0  0
 23 24  4  0  0  0  0
 24 25  4  0  0  0  0
 25 26  4  0  0  0  0
 21 26  4  0  0  0  0
 15 27  4  0  0  0  0
  6 27  4  0  0  0  0
 11 27  4  0  0  0  0
M  END
>  <CdId>
720

>  <Mol Weight>
363.465

>  <Formula>
C21H25N5O

>  <Molecule ChEMBL ID>
CHEMBL4207296

>  <Molecule Max Phase>
None

>  <Molecular Weight>
363.46

>  <#RO5 Violations>
0

>  <AlogP>
3.92

>  <Compound Key>
48

>  <Standard Type>
IC50

>  <Standard Relation>
'>'

>  <Standard Value>
10000.0

>  <Standard Units>
nM

$$$$

  Mrv2114 03112311372D          

 20 20  0  0  1  0            999 V2000
    1.3537    0.9118    0.0000 C   0  0  0  0  0  0  0  0  0  0  0  0
    1.3537    0.0868    0.0000 C   0  0  0  0  0  0  0  0  0  0  0  0
    2.0682   -0.3257    0.0000 C   0  0  0  0  0  0  0  0  0  0  0  0
    2.7827    0.0868    0.0000 O   0  0  0  0  0  0  0  0  0  0  0  0
    2.0682   -1.1507    0.0000 C   0  0  0  0  0  0  0  0  0  0  0  0
    2.7827   -1.5632    0.0000 O   0  0  0  0  0  0  0  0  0  0  0  0
    1.3537   -1.5632    0.0000 C   0  0  0  0  0  0  0  0  0  0  0  0
    0.6393   -1.1507    0.0000 C   0  0  0  0  0  0  0  0  0  0  0  0
    0.6393   -0.3257    0.0000 N   0  3  0  0  0  0  0  0  0  0  0  0
   -0.0752    0.0868    0.0000 C   0  0  1  0  0  0  0  0  0  0  0  0
   -0.0752    0.9118    0.0000 C   0  0  0  0  0  0  0  0  0  0  0  0
   -0.7897    1.3243    0.0000 O   0  0  0  0  0  0  0  0  0  0  0  0
   -0.7897   -0.3257    0.0000 C   0  0  0  0  0  0  0  0  0  0  0  0
   -1.5041    0.0868    0.0000 C   0  0  0  0  0  0  0  0  0  0  0  0
   -2.2186   -0.3257    0.0000 C   0  0  0  0  0  0  0  0  0  0  0  0
   -2.9331    0.0868    0.0000 C   0  0  0  0  0  0  0  0  0  0  0  0
   -2.9331    0.9118    0.0000 C   0  0  0  0  0  0  0  0  0  0  0  0
   -2.2186    1.3243    0.0000 C   0  0  0  0  0  0  0  0  0  0  0  0
   -1.5041    0.9118    0.0000 C   0  0  0  0  0  0  0  0  0  0  0  0
    5.1398    0.0000    0.0000 Cl  0  5  0  0  0  0  0  0  0  0  0  0
  1  2  1  0  0  0  0
  2  3  4  0  0  0  0
  3  4  1  0  0  0  0
  3  5  4  0  0  0  0
  5  6  1  0  0  0  0
  5  7  4  0  0  0  0
  7  8  4  0  0  0  0
  8  9  4  0  0  0  0
  2  9  4  0  0  0  0
 10  9  1  0  0  0  0
 10 11  1  6  0  0  0
 11 12  1  0  0  0  0
 10 13  1  0  0  0  0
 13 14  1  0  0  0  0
 14 15  4  0  0  0  0
 15 16  4  0  0  0  0
 16 17  4  0  0  0  0
 17 18  4  0  0  0  0
 18 19  4  0  0  0  0
 14 19  4  0  0  0  0
M  CHG  2   9   1  20  -1
M  END
>  <CdId>
721

>  <Mol Weight>
295.76

>  <Formula>
C15H18ClNO3

>  <Molecule ChEMBL ID>
CHEMBL4467408

>  <Molecule Max Phase>
None

>  <Molecular Weight>
295.77

>  <#RO5 Violations>
0

>  <AlogP>
1.47

>  <Compound Key>
8p; CN128

>  <Standard Type>
IC50

>  <Standard Relation>
'>'

>  <Standard Value>
200000.0

>  <Standard Units>
nM

$$$$

  Mrv2114 03112311372D          

 31 34  0  0  0  0            999 V2000
    2.0911   -1.5016    0.0000 C   0  0  0  0  0  0  0  0  0  0  0  0
    1.7821   -0.7366    0.0000 C   0  0  0  0  0  0  0  0  0  0  0  0
    0.9816   -0.5371    0.0000 C   0  0  0  0  0  0  0  0  0  0  0  0
    0.3496   -1.0674    0.0000 C   0  0  0  0  0  0  0  0  0  0  0  0
   -0.2824   -0.5371    0.0000 C   0  0  0  0  0  0  0  0  0  0  0  0
   -1.0576   -0.8192    0.0000 C   0  0  0  0  0  0  0  0  0  0  0  0
   -1.6896   -0.2889    0.0000 C   0  0  0  0  0  0  0  0  0  0  0  0
   -1.5464    0.5235    0.0000 C   0  0  0  0  0  0  0  0  0  0  0  0
   -2.1784    1.0538    0.0000 C   0  0  0  0  0  0  0  0  0  0  0  0
   -2.8103    1.5841    0.0000 F   0  0  0  0  0  0  0  0  0  0  0  0
   -2.7087    0.4219    0.0000 F   0  0  0  0  0  0  0  0  0  0  0  0
   -1.6481    1.6858    0.0000 F   0  0  0  0  0  0  0  0  0  0  0  0
   -0.7711    0.8057    0.0000 C   0  0  0  0  0  0  0  0  0  0  0  0
   -0.6279    1.6182    0.0000 C   0  0  0  0  0  0  0  0  0  0  0  0
   -0.4846    2.4306    0.0000 N   0  0  0  0  0  0  0  0  0  0  0  0
   -0.1391    0.2754    0.0000 C   0  0  0  0  0  0  0  0  0  0  0  0
    0.7621   -1.7818    0.0000 C   0  0  0  0  0  0  0  0  0  0  0  0
   -0.0629   -1.7818    0.0000 C   0  0  0  0  0  0  0  0  0  0  0  0
    0.9240    0.2859    0.0000 C   0  0  0  0  0  0  0  0  0  0  0  0
    1.6890    0.5950    0.0000 N   0  0  0  0  0  0  0  0  0  0  0  0
    2.2193   -0.0370    0.0000 C   0  0  0  0  0  0  0  0  0  0  0  0
    3.0422    0.0205    0.0000 C   0  0  0  0  0  0  0  0  0  0  0  0
    3.4039    0.7621    0.0000 O   0  0  0  0  0  0  0  0  0  0  0  0
    3.5036   -0.6634    0.0000 N   0  0  0  0  0  0  0  0  0  0  0  0
    4.3266   -0.6059    0.0000 C   0  0  0  0  0  0  0  0  0  0  0  0
    4.6882    0.1356    0.0000 C   0  0  0  0  0  0  0  0  0  0  0  0
    4.7879   -1.2898    0.0000 C   0  0  0  0  0  0  0  0  0  0  0  0
    5.6124   -1.3186    0.0000 N   0  0  0  0  0  0  0  0  0  0  0  0
    5.8398   -2.1116    0.0000 C   0  0  0  0  0  0  0  0  0  0  0  0
    5.1558   -2.5730    0.0000 N   0  0  0  0  0  0  0  0  0  0  0  0
    4.5057   -2.0651    0.0000 N   0  0  0  0  0  0  0  0  0  0  0  0
  1  2  1  0  0  0  0
  2  3  4  0  0  0  0
  3  4  1  0  0  0  0
  4  5  1  0  0  0  0
  5  6  4  0  0  0  0
  6  7  4  0  0  0  0
  7  8  4  0  0  0  0
  8  9  1  0  0  0  0
  9 10  1  0  0  0  0
  9 11  1  0  0  0  0
  9 12  1  0  0  0  0
  8 13  4  0  0  0  0
 13 14  1  0  0  0  0
 14 15  3  0  0  0  0
 13 16  4  0  0  0  0
  5 16  4  0  0  0  0
  4 17  1  0  0  0  0
 17 18  1  0  0  0  0
  4 18  1  0  0  0  0
  3 19  4  0  0  0  0
 19 20  4  0  0  0  0
 20 21  4  0  0  0  0
  2 21  4  0  0  0  0
 21 22  1  0  0  0  0
 22 23  2  0  0  0  0
 22 24  1  0  0  0  0
 24 25  1  0  0  0  0
 25 26  1  0  0  0  0
 25 27  1  0  0  0  0
 27 28  4  0  0  0  0
 28 29  4  0  0  0  0
 29 30  4  0  0  0  0
 30 31  4  0  0  0  0
 27 31  4  0  0  0  0
M  STY  2   1 DAT   2 DAT
M  SAL   1  1  20
M  SDT   1 MRV_IMPLICIT_H                                        
M  SDD   1     0.0000    0.0000    DR    ALL  0       0  
M  SED   1 IMPL_H1
M  SAL   2  1  30
M  SDT   2 MRV_IMPLICIT_H                                        
M  SDD   2     0.0000    0.0000    DR    ALL  0       0  
M  SED   2 IMPL_H1
M  END
>  <CdId>
722

>  <Mol Weight>
428.419

>  <Formula>
C21H19F3N6O

>  <Molecule ChEMBL ID>
CHEMBL4876457

>  <Molecule Max Phase>
None

>  <Molecular Weight>
428.42

>  <#RO5 Violations>
0

>  <AlogP>
3.9

>  <Compound Key>
99; DSM873

>  <Standard Type>
IC50

$$$$

  Mrv2114 03112311372D          

 22 24  0  0  0  0            999 V2000
    4.7812    1.9354    0.0000 C   0  0  0  0  0  0  0  0  0  0  0  0
    4.0668    2.3479    0.0000 O   0  0  0  0  0  0  0  0  0  0  0  0
    3.3523    1.9354    0.0000 C   0  0  0  0  0  0  0  0  0  0  0  0
    3.3523    1.1104    0.0000 C   0  0  0  0  0  0  0  0  0  0  0  0
    2.6378    0.6979    0.0000 C   0  0  0  0  0  0  0  0  0  0  0  0
    1.9233    1.1104    0.0000 C   0  0  0  0  0  0  0  0  0  0  0  0
    1.1387    0.8555    0.0000 N   0  0  0  0  0  0  0  0  0  0  0  0
    0.6538    1.5229    0.0000 C   0  0  0  0  0  0  0  0  0  0  0  0
   -0.1712    1.5229    0.0000 S   0  0  0  0  0  0  0  0  0  0  0  0
   -0.5837    0.8085    0.0000 C   0  0  0  0  0  0  0  0  0  0  0  0
   -1.4087    0.8085    0.0000 C   0  0  0  0  0  0  0  0  0  0  0  0
   -1.8212    0.0940    0.0000 C   0  0  0  0  0  0  0  0  0  0  0  0
   -2.6462    0.0940    0.0000 C   0  0  0  0  0  0  0  0  0  0  0  0
   -3.0587    0.8085    0.0000 C   0  0  0  0  0  0  0  0  0  0  0  0
   -3.8837    0.8085    0.0000 C   0  0  0  0  0  0  0  0  0  0  0  0
   -4.2962    0.0940    0.0000 O   0  0  0  0  0  0  0  0  0  0  0  0
   -4.2962    1.5229    0.0000 O   0  0  0  0  0  0  0  0  0  0  0  0
   -2.6462    1.5229    0.0000 C   0  0  0  0  0  0  0  0  0  0  0  0
   -1.8212    1.5229    0.0000 C   0  0  0  0  0  0  0  0  0  0  0  0
    1.1387    2.1904    0.0000 N   0  0  0  0  0  0  0  0  0  0  0  0
    1.9233    1.9354    0.0000 C   0  0  0  0  0  0  0  0  0  0  0  0
    2.6378    2.3479    0.0000 C   0  0  0  0  0  0  0  0  0  0  0  0
  1  2  1  0  0  0  0
  2  3  1  0  0  0  0
  3  4  4  0  0  0  0
  4  5  4  0  0  0  0
  5  6  4  0  0  0  0
  6  7  4  0  0  0  0
  7  8  4  0  0  0  0
  8  9  1  0  0  0  0
  9 10  1  0  0  0  0
 10 11  1  0  0  0  0
 11 12  4  0  0  0  0
 12 13  4  0  0  0  0
 13 14  4  0  0  0  0
 14 15  1  0  0  0  0
 15 16  2  0  0  0  0
 15 17  1  0  0  0  0
 14 18  4  0  0  0  0
 18 19  4  0  0  0  0
 11 19  4  0  0  0  0
  8 20  4  0  0  0  0
 20 21  4  0  0  0  0
  6 21  4  0  0  0  0
 21 22  4  0  0  0  0
  3 22  4  0  0  0  0
M  STY  1   1 DAT
M  SAL   1  1   7
M  SDT   1 MRV_IMPLICIT_H                                        
M  SDD   1     0.0000    0.0000    DR    ALL  0       0  
M  SED   1 IMPL_H1
M  END
>  <CdId>
723

>  <Mol Weight>
314.36

>  <Formula>
C16H14N2O3S

>  <Molecule ChEMBL ID>
CHEMBL2018922

>  <Molecule Max Phase>
None

>  <Molecular Weight>
314.37

>  <#RO5 Violations>
0

>  <AlogP>
3.56

>  <Compound Key>
20

>  <Standard Type>
IC50

>  <Standard Relation>
'>'

>  <Standard Value>
50000.0

>  <Standard Units>
nM

$$$$

  Mrv2114 03112311372D          

 20 22  0  0  0  0            999 V2000
    4.7812    1.9354    0.0000 C   0  0  0  0  0  0  0  0  0  0  0  0
    4.0668    2.3479    0.0000 O   0  0  0  0  0  0  0  0  0  0  0  0
    3.3523    1.9354    0.0000 C   0  0  0  0  0  0  0  0  0  0  0  0
    3.3523    1.1104    0.0000 C   0  0  0  0  0  0  0  0  0  0  0  0
    2.6378    0.6979    0.0000 C   0  0  0  0  0  0  0  0  0  0  0  0
    1.9233    1.1104    0.0000 C   0  0  0  0  0  0  0  0  0  0  0  0
    1.1387    0.8555    0.0000 N   0  0  0  0  0  0  0  0  0  0  0  0
    0.6538    1.5229    0.0000 C   0  0  0  0  0  0  0  0  0  0  0  0
   -0.1712    1.5229    0.0000 S   0  0  0  0  0  0  0  0  0  0  0  0
   -0.5837    0.8085    0.0000 C   0  0  0  0  0  0  0  0  0  0  0  0
   -1.4087    0.8085    0.0000 C   0  0  0  0  0  0  0  0  0  0  0  0
   -1.8212    0.0940    0.0000 C   0  0  0  0  0  0  0  0  0  0  0  0
   -2.6462    0.0940    0.0000 C   0  0  0  0  0  0  0  0  0  0  0  0
   -3.0587    0.8085    0.0000 C   0  0  0  0  0  0  0  0  0  0  0  0
   -3.8837    0.8085    0.0000 C   0  0  0  0  0  0  0  0  0  0  0  0
   -2.6462    1.5229    0.0000 C   0  0  0  0  0  0  0  0  0  0  0  0
   -1.8212    1.5229    0.0000 C   0  0  0  0  0  0  0  0  0  0  0  0
    1.1387    2.1904    0.0000 N   0  0  0  0  0  0  0  0  0  0  0  0
    1.9233    1.9354    0.0000 C   0  0  0  0  0  0  0  0  0  0  0  0
    2.6378    2.3479    0.0000 C   0  0  0  0  0  0  0  0  0  0  0  0
  1  2  1  0  0  0  0
  2  3  1  0  0  0  0
  3  4  4  0  0  0  0
  4  5  4  0  0  0  0
  5  6  4  0  0  0  0
  6  7  4  0  0  0  0
  7  8  4  0  0  0  0
  8  9  1  0  0  0  0
  9 10  1  0  0  0  0
 10 11  1  0  0  0  0
 11 12  4  0  0  0  0
 12 13  4  0  0  0  0
 13 14  4  0  0  0  0
 14 15  1  0  0  0  0
 14 16  4  0  0  0  0
 16 17  4  0  0  0  0
 11 17  4  0  0  0  0
  8 18  4  0  0  0  0
 18 19  4  0  0  0  0
  6 19  4  0  0  0  0
 19 20  4  0  0  0  0
  3 20  4  0  0  0  0
M  STY  1   1 DAT
M  SAL   1  1   7
M  SDT   1 MRV_IMPLICIT_H                                        
M  SDD   1     0.0000    0.0000    DR    ALL  0       0  
M  SED   1 IMPL_H1
M  END
>  <CdId>
724

>  <Mol Weight>
284.38

>  <Formula>
C16H16N2OS

>  <Molecule ChEMBL ID>
CHEMBL2018916

>  <Molecule Max Phase>
None

>  <Molecular Weight>
284.38

>  <#RO5 Violations>
0

>  <AlogP>
4.17

>  <Compound Key>
14

>  <Standard Type>
IC50

>  <Standard Relation>
'='

>  <Standard Value>
3320.0

>  <Standard Units>
nM

$$$$

  Mrv2114 03112311372D          

 24 25  0  0  1  0            999 V2000
    0.0000    0.0000    0.0000 Cl  0  0  0  0  0  0  0  0  0  0  0  0
    6.4071    4.0703    0.0000 N   0  0  0  0  0  0  0  0  0  0  0  0
    5.6927    3.6578    0.0000 C   0  0  0  0  0  0  0  0  0  0  0  0
    4.9782    4.0703    0.0000 O   0  0  0  0  0  0  0  0  0  0  0  0
    5.6927    2.8328    0.0000 C   0  0  2  0  0  0  0  0  0  0  0  0
    6.3601    2.3479    0.0000 C   0  0  0  0  0  0  0  0  0  0  0  0
    6.1052    1.5633    0.0000 C   0  0  0  0  0  0  0  0  0  0  0  0
    5.2802    1.5633    0.0000 C   0  0  2  0  0  0  0  0  0  0  0  0
    4.7953    0.8959    0.0000 C   0  0  0  0  0  0  0  0  0  0  0  0
    5.1308    0.1422    0.0000 C   0  0  0  0  0  0  0  0  0  0  0  0
    4.6459   -0.5253    0.0000 C   0  0  0  0  0  0  0  0  0  0  0  0
    3.8254   -0.4390    0.0000 C   0  0  0  0  0  0  0  0  0  0  0  0
    3.3405   -1.1065    0.0000 O   0  0  0  0  0  0  0  0  0  0  0  0
    3.6760   -1.8601    0.0000 C   0  0  0  0  0  0  0  0  0  0  0  0
    3.1911   -2.5276    0.0000 C   0  0  0  0  0  0  0  0  0  0  0  0
    3.5267   -3.2812    0.0000 C   0  0  0  0  0  0  0  0  0  0  0  0
    3.0418   -3.9487    0.0000 C   0  0  0  0  0  0  0  0  0  0  0  0
    2.2213   -3.8625    0.0000 C   0  0  0  0  0  0  0  0  0  0  0  0
    1.8857   -3.1088    0.0000 C   0  0  0  0  0  0  0  0  0  0  0  0
    2.3706   -2.4413    0.0000 C   0  0  0  0  0  0  0  0  0  0  0  0
    2.0351   -1.6877    0.0000 F   0  0  0  0  0  0  0  0  0  0  0  0
    3.4898    0.3147    0.0000 C   0  0  0  0  0  0  0  0  0  0  0  0
    3.9748    0.9821    0.0000 C   0  0  0  0  0  0  0  0  0  0  0  0
    5.0252    2.3479    0.0000 N   0  0  0  0  0  0  0  0  0  0  0  0
  2  3  1  0  0  0  0
  3  4  2  0  0  0  0
  5  3  1  6  0  0  0
  5  6  1  0  0  0  0
  6  7  1  0  0  0  0
  8  7  1  0  0  0  0
  8  9  1  6  0  0  0
  9 10  4  0  0  0  0
 10 11  4  0  0  0  0
 11 12  4  0  0  0  0
 12 13  1  0  0  0  0
 13 14  1  0  0  0  0
 14 15  1  0  0  0  0
 15 16  4  0  0  0  0
 16 17  4  0  0  0  0
 17 18  4  0  0  0  0
 18 19  4  0  0  0  0
 19 20  4  0  0  0  0
 15 20  4  0  0  0  0
 20 21  1  0  0  0  0
 12 22  4  0  0  0  0
 22 23  4  0  0  0  0
  9 23  4  0  0  0  0
  8 24  1  0  0  0  0
  5 24  1  0  0  0  0
M  END
>  <CdId>
725

>  <Mol Weight>
350.82

>  <Formula>
C18H20ClFN2O2

>  <Molecule ChEMBL ID>
CHEMBL3544912

>  <Molecule Name>
RAXATRIGINE HYDROCHLORIDE

>  <Molecule Max Phase>
-1

>  <Molecular Weight>
350.82

>  <#RO5 Violations>
0

>  <AlogP>
2.68

>  <Compound Key>
20

>  <Standard Type>
IC50

>  <Standard Relation>
'>'

>  <Standard Value>
100000.0

>  <Standard Units>
nM

$$$$

  Mrv2114 03112311372D          

 23 26  0  0  0  0            999 V2000
    8.3202   -1.5884    0.0000 C   0  0  0  0  0  0  0  0  0  0  0  0
    7.6058   -1.1759    0.0000 O   0  0  0  0  0  0  0  0  0  0  0  0
    6.8913   -1.5884    0.0000 C   0  0  0  0  0  0  0  0  0  0  0  0
    6.8913   -2.4134    0.0000 C   0  0  0  0  0  0  0  0  0  0  0  0
    6.1768   -2.8259    0.0000 C   0  0  0  0  0  0  0  0  0  0  0  0
    5.4623   -2.4134    0.0000 C   0  0  0  0  0  0  0  0  0  0  0  0
    4.6777   -2.6683    0.0000 N   0  0  0  0  0  0  0  0  0  0  0  0
    4.1928   -2.0009    0.0000 C   0  0  0  0  0  0  0  0  0  0  0  0
    3.3678   -2.0009    0.0000 S   0  0  0  0  0  0  0  0  0  0  0  0
    2.9553   -2.7154    0.0000 C   0  0  0  0  0  0  0  0  0  0  0  0
    2.1303   -2.7154    0.0000 C   0  0  0  0  0  0  0  0  0  0  0  0
    1.7178   -3.4298    0.0000 C   0  0  0  0  0  0  0  0  0  0  0  0
    0.8928   -3.4298    0.0000 C   0  0  0  0  0  0  0  0  0  0  0  0
    0.4803   -2.7154    0.0000 C   0  0  0  0  0  0  0  0  0  0  0  0
   -0.3447   -2.7154    0.0000 C   0  0  0  0  0  0  0  0  0  0  0  0
   -0.7572   -2.0009    0.0000 C   0  0  0  0  0  0  0  0  0  0  0  0
   -0.3447   -1.2864    0.0000 C   0  0  0  0  0  0  0  0  0  0  0  0
    0.4803   -1.2864    0.0000 C   0  0  0  0  0  0  0  0  0  0  0  0
    0.8928   -2.0009    0.0000 C   0  0  0  0  0  0  0  0  0  0  0  0
    1.7178   -2.0009    0.0000 N   0  0  0  0  0  0  0  0  0  0  0  0
    4.6777   -1.3335    0.0000 N   0  0  0  0  0  0  0  0  0  0  0  0
    5.4623   -1.5884    0.0000 C   0  0  0  0  0  0  0  0  0  0  0  0
    6.1768   -1.1759    0.0000 C   0  0  0  0  0  0  0  0  0  0  0  0
  1  2  1  0  0  0  0
  2  3  1  0  0  0  0
  3  4  4  0  0  0  0
  4  5  4  0  0  0  0
  5  6  4  0  0  0  0
  6  7  4  0  0  0  0
  7  8  4  0  0  0  0
  8  9  1  0  0  0  0
  9 10  1  0  0  0  0
 10 11  1  0  0  0  0
 11 12  4  0  0  0  0
 12 13  4  0  0  0  0
 13 14  4  0  0  0  0
 14 15  4  0  0  0  0
 15 16  4  0  0  0  0
 16 17  4  0  0  0  0
 17 18  4  0  0  0  0
 18 19  4  0  0  0  0
 14 19  4  0  0  0  0
 19 20  4  0  0  0  0
 11 20  4  0  0  0  0
  8 21  4  0  0  0  0
 21 22  4  0  0  0  0
  6 22  4  0  0  0  0
 22 23  4  0  0  0  0
  3 23  4  0  0  0  0
M  STY  1   1 DAT
M  SAL   1  1   7
M  SDT   1 MRV_IMPLICIT_H                                        
M  SDD   1     0.0000    0.0000    DR    ALL  0       0  
M  SED   1 IMPL_H1
M  END
>  <CdId>
726

>  <Mol Weight>
321.4

>  <Formula>
C18H15N3OS

>  <Molecule ChEMBL ID>
CHEMBL2018924

>  <Molecule Max Phase>
None

>  <Molecular Weight>
321.41

>  <#RO5 Violations>
0

>  <AlogP>
4.41

>  <Compound Key>
24

>  <Standard Type>
IC50

>  <Standard Relation>
'='

>  <Standard Value>
3490.0

>  <Standard Units>
nM

$$$$

  Mrv2114 03112311372D          

 43 50  0  0  0  0            999 V2000
    9.0681   -2.7604    0.0000 N   0  0  0  0  0  0  0  0  0  0  0  0
    8.3536   -2.3479    0.0000 C   0  0  0  0  0  0  0  0  0  0  0  0
    8.3536   -1.5229    0.0000 N   0  0  0  0  0  0  0  0  0  0  0  0
    7.6391   -1.1104    0.0000 C   0  0  0  0  0  0  0  0  0  0  0  0
    7.6391   -0.2854    0.0000 C   0  0  0  0  0  0  0  0  0  0  0  0
    6.9246    0.1271    0.0000 C   0  0  0  0  0  0  0  0  0  0  0  0
    6.9246    0.9521    0.0000 C   0  0  0  0  0  0  0  0  0  0  0  0
    7.6391    1.3646    0.0000 C   0  0  0  0  0  0  0  0  0  0  0  0
    8.3536    0.9521    0.0000 C   0  0  0  0  0  0  0  0  0  0  0  0
    9.0681    1.3646    0.0000 N   0  0  0  0  0  0  0  0  0  0  0  0
    9.0681    2.1896    0.0000 C   0  0  0  0  0  0  0  0  0  0  0  0
    9.7825    2.6021    0.0000 C   0  0  0  0  0  0  0  0  0  0  0  0
   10.4970    2.1896    0.0000 C   0  0  0  0  0  0  0  0  0  0  0  0
   11.2115    2.6021    0.0000 C   0  0  0  0  0  0  0  0  0  0  0  0
   11.9259    2.1896    0.0000 C   0  0  0  0  0  0  0  0  0  0  0  0
   12.6404    2.6021    0.0000 C   0  0  0  0  0  0  0  0  0  0  0  0
   13.0529    3.3165    0.0000 C   0  0  0  0  0  0  0  0  0  0  0  0
   13.4654    2.6021    0.0000 C   0  0  0  0  0  0  0  0  0  0  0  0
   11.9259    1.3646    0.0000 C   0  0  0  0  0  0  0  0  0  0  0  0
   11.2115    0.9521    0.0000 C   0  0  0  0  0  0  0  0  0  0  0  0
   11.2115    0.1271    0.0000 F   0  0  0  0  0  0  0  0  0  0  0  0
   10.4970    1.3646    0.0000 C   0  0  0  0  0  0  0  0  0  0  0  0
    9.7825    0.9521    0.0000 C   0  0  0  0  0  0  0  0  0  0  0  0
    9.7825    0.1271    0.0000 O   0  0  0  0  0  0  0  0  0  0  0  0
    8.3536    0.1271    0.0000 C   0  0  0  0  0  0  0  0  0  0  0  0
    9.0681   -0.2854    0.0000 C   0  0  0  0  0  0  0  0  0  0  0  0
    9.0681   -1.1104    0.0000 O   0  0  0  0  0  0  0  0  0  0  0  0
    6.9246   -1.5229    0.0000 C   0  0  0  0  0  0  0  0  0  0  0  0
    6.1400   -1.2680    0.0000 C   0  0  0  0  0  0  0  0  0  0  0  0
    5.6551   -1.9354    0.0000 C   0  0  0  0  0  0  0  0  0  0  0  0
    4.8301   -1.9354    0.0000 C   0  0  0  0  0  0  0  0  0  0  0  0
    4.4176   -2.6499    0.0000 C   0  0  0  0  0  0  0  0  0  0  0  0
    3.5926   -2.6499    0.0000 C   0  0  0  0  0  0  0  0  0  0  0  0
    3.1801   -1.9354    0.0000 N   0  0  0  0  0  0  0  0  0  0  0  0
    2.3551   -1.9354    0.0000 C   0  0  0  0  0  0  0  0  0  0  0  0
    1.7717   -2.5188    0.0000 C   0  0  0  0  0  0  0  0  0  0  0  0
    1.1884   -1.9354    0.0000 O   0  0  0  0  0  0  0  0  0  0  0  0
    1.7717   -1.3521    0.0000 C   0  0  0  0  0  0  0  0  0  0  0  0
    3.5926   -1.2210    0.0000 C   0  0  0  0  0  0  0  0  0  0  0  0
    4.4176   -1.2210    0.0000 C   0  0  0  0  0  0  0  0  0  0  0  0
    6.1400   -2.6029    0.0000 N   0  0  0  0  0  0  0  0  0  0  0  0
    6.9246   -2.3479    0.0000 C   0  0  0  0  0  0  0  0  0  0  0  0
    7.6391   -2.7604    0.0000 N   0  0  0  0  0  0  0  0  0  0  0  0
  1  2  1  0  0  0  0
  2  3  4  0  0  0  0
  3  4  4  0  0  0  0
  4  5  1  0  0  0  0
  5  6  4  0  0  0  0
  6  7  4  0  0  0  0
  7  8  4  0  0  0  0
  8  9  4  0  0  0  0
  9 10  1  0  0  0  0
 10 11  4  0  0  0  0
 11 12  4  0  0  0  0
 12 13  4  0  0  0  0
 13 14  4  0  0  0  0
 14 15  4  0  0  0  0
 15 16  1  0  0  0  0
 16 17  1  0  0  0  0
 17 18  1  0  0  0  0
 16 18  1  0  0  0  0
 15 19  4  0  0  0  0
 19 20  4  0  0  0  0
 20 21  1  0  0  0  0
 20 22  4  0  0  0  0
 13 22  4  0  0  0  0
 22 23  4  0  0  0  0
 10 23  4  0  0  0  0
 23 24  2  0  0  0  0
  9 25  4  0  0  0  0
  5 25  4  0  0  0  0
 25 26  1  0  0  0  0
 26 27  1  0  0  0  0
  4 28  4  0  0  0  0
 28 29  4  0  0  0  0
 29 30  4  0  0  0  0
 30 31  1  0  0  0  0
 31 32  2  0  0  0  0
 32 33  1  0  0  0  0
 33 34  1  0  0  0  0
 34 35  1  0  0  0  0
 35 36  1  0  0  0  0
 36 37  1  0  0  0  0
 37 38  1  0  0  0  0
 35 38  1  0  0  0  0
 34 39  1  0  0  0  0
 39 40  1  0  0  0  0
 31 40  1  0  0  0  0
 30 41  4  0  0  0  0
 41 42  4  0  0  0  0
 28 42  4  0  0  0  0
 42 43  4  0  0  0  0
  2 43  4  0  0  0  0
M  STY  1   1 DAT
M  SAL   1  1  41
M  SDT   1 MRV_IMPLICIT_H                                        
M  SDD   1     0.0000    0.0000    DR    ALL  0       0  
M  SED   1 IMPL_H1
M  END
>  <CdId>
727

>  <Mol Weight>
578.648

>  <Formula>
C33H31FN6O3

>  <Molecule ChEMBL ID>
CHEMBL5077961

>  <Molecule Max Phase>
None

>  <Molecular Weight>
578.65

>  <#RO5 Violations>
1

>  <AlogP>
4.51

>  <Compound Key>
13f; AS-1763

>  <Standard Type>
IC50

>  <Standard Relation>
'='

>  <Standard Value>
3170.0

>  <Standard Units>
nM

$$$$

  Mrv2114 03112311372D          

 27 29  0  0  0  0            999 V2000
    3.9849   -1.9520    0.0000 C   0  0  0  0  0  0  0  0  0  0  0  0
    3.5724   -1.2375    0.0000 C   0  0  0  0  0  0  0  0  0  0  0  0
    3.1599   -0.5230    0.0000 C   0  0  0  0  0  0  0  0  0  0  0  0
    2.8579   -1.6500    0.0000 O   0  0  0  0  0  0  0  0  0  0  0  0
    2.8579   -2.4750    0.0000 C   0  0  0  0  0  0  0  0  0  0  0  0
    3.5724   -2.8875    0.0000 C   0  0  0  0  0  0  0  0  0  0  0  0
    3.5724   -3.7125    0.0000 C   0  0  0  0  0  0  0  0  0  0  0  0
    2.8579   -4.1250    0.0000 C   0  0  0  0  0  0  0  0  0  0  0  0
    2.8579   -4.9500    0.0000 C   0  0  0  0  0  0  0  0  0  0  0  0
    3.5724   -5.3625    0.0000 C   0  0  0  0  0  0  0  0  0  0  0  0
    3.5724   -6.1875    0.0000 N   0  0  0  0  0  0  0  0  0  0  0  0
    2.8579   -6.6000    0.0000 C   0  0  0  0  0  0  0  0  0  0  0  0
    2.8579   -7.4250    0.0000 N   0  0  0  0  0  0  0  0  0  0  0  0
    2.1434   -6.1875    0.0000 C   0  0  0  0  0  0  0  0  0  0  0  0
    1.4289   -6.6000    0.0000 C   0  0  0  0  0  0  0  0  0  0  0  0
    1.4289   -7.4250    0.0000 C   0  0  0  0  0  0  0  0  0  0  0  0
    0.7145   -7.8375    0.0000 C   0  0  0  0  0  0  0  0  0  0  0  0
   -0.0000   -7.4250    0.0000 C   0  0  0  0  0  0  0  0  0  0  0  0
   -0.7145   -7.8375    0.0000 Cl  0  0  0  0  0  0  0  0  0  0  0  0
    0.0000   -6.6000    0.0000 C   0  0  0  0  0  0  0  0  0  0  0  0
    0.7145   -6.1875    0.0000 C   0  0  0  0  0  0  0  0  0  0  0  0
    2.1434   -5.3625    0.0000 C   0  0  0  0  0  0  0  0  0  0  0  0
    2.1434   -3.7125    0.0000 C   0  0  0  0  0  0  0  0  0  0  0  0
    2.1434   -2.8875    0.0000 C   0  0  0  0  0  0  0  0  0  0  0  0
    4.2868   -0.8250    0.0000 C   0  0  0  0  0  0  0  0  0  0  0  0
    4.2868    0.0000    0.0000 O   0  0  0  0  0  0  0  0  0  0  0  0
    5.0013   -1.2375    0.0000 O   0  0  0  0  0  0  0  0  0  0  0  0
  1  2  1  0  0  0  0
  2  3  1  0  0  0  0
  2  4  1  0  0  0  0
  4  5  1  0  0  0  0
  5  6  4  0  0  0  0
  6  7  4  0  0  0  0
  7  8  4  0  0  0  0
  8  9  1  0  0  0  0
  9 10  4  0  0  0  0
 10 11  4  0  0  0  0
 11 12  4  0  0  0  0
 12 13  1  0  0  0  0
 12 14  4  0  0  0  0
 14 15  1  0  0  0  0
 15 16  4  0  0  0  0
 16 17  4  0  0  0  0
 17 18  4  0  0  0  0
 18 19  1  0  0  0  0
 18 20  4  0  0  0  0
 20 21  4  0  0  0  0
 15 21  4  0  0  0  0
 14 22  4  0  0  0  0
  9 22  4  0  0  0  0
  8 23  4  0  0  0  0
 23 24  4  0  0  0  0
  5 24  4  0  0  0  0
  2 25  1  0  0  0  0
 25 26  2  0  0  0  0
 25 27  1  0  0  0  0
M  END
>  <CdId>
728

>  <Mol Weight>
382.84

>  <Formula>
C21H19ClN2O3

>  <Molecule ChEMBL ID>
CHEMBL4746566

>  <Molecule Max Phase>
None

>  <Molecular Weight>
382.85

>  <#RO5 Violations>
0

>  <AlogP>
4.89

>  <Compound Key>
37

>  <Standard Type>
IC50

>  <Standard Relation>
'>'

>  <Standard Value>
3000.0

>  <Standard Units>
nM

$$$$

  Mrv2114 03112311372D          

 45 49  0  0  1  0            999 V2000
   -1.6382   -3.9864    0.0000 C   0  0  0  0  0  0  0  0  0  0  0  0
   -1.7845   -3.1744    0.0000 C   0  0  1  0  0  0  0  0  0  0  0  0
   -2.5607   -2.8951    0.0000 C   0  0  0  0  0  0  0  0  0  0  0  0
   -2.7070   -2.0832    0.0000 C   0  0  2  0  0  0  0  0  0  0  0  0
   -3.4833   -1.8039    0.0000 C   0  0  0  0  0  0  0  0  0  0  0  0
   -3.6295   -0.9919    0.0000 O   0  0  0  0  0  0  0  0  0  0  0  0
   -4.1133   -2.3365    0.0000 O   0  0  0  0  0  0  0  0  0  0  0  0
   -2.0769   -1.5506    0.0000 C   0  0  0  0  0  0  0  0  0  0  0  0
   -1.3007   -1.8299    0.0000 C   0  0  0  0  0  0  0  0  0  0  0  0
   -1.1544   -2.6418    0.0000 C   0  0  1  0  0  0  0  0  0  0  0  0
   -0.3781   -2.9211    0.0000 C   0  0  0  0  0  0  0  0  0  0  0  0
   -0.2319   -3.7331    0.0000 O   0  0  0  0  0  0  0  0  0  0  0  0
    0.2519   -2.3885    0.0000 N   0  0  0  0  0  0  0  0  0  0  0  0
    0.1913   -1.5657    0.0000 C   0  0  0  0  0  0  0  0  0  0  0  0
    0.9551   -1.2539    0.0000 C   0  0  0  0  0  0  0  0  0  0  0  0
    1.4877   -1.8839    0.0000 C   0  0  1  0  0  0  0  0  0  0  0  0
    1.8467   -1.1411    0.0000 S   0  0  0  0  0  0  0  0  0  0  0  0
    2.5737   -0.7511    0.0000 O   0  0  0  0  0  0  0  0  0  0  0  0
    1.1038   -0.7822    0.0000 O   0  0  0  0  0  0  0  0  0  0  0  0
    2.2056   -0.3983    0.0000 C   0  0  0  0  0  0  0  0  0  0  0  0
    1.7417    0.2840    0.0000 C   0  0  0  0  0  0  0  0  0  0  0  0
    2.1007    1.0268    0.0000 C   0  0  0  0  0  0  0  0  0  0  0  0
    2.9234    1.0874    0.0000 C   0  0  0  0  0  0  0  0  0  0  0  0
    3.3873    0.4051    0.0000 C   0  0  0  0  0  0  0  0  0  0  0  0
    3.0284   -0.3377    0.0000 C   0  0  0  0  0  0  0  0  0  0  0  0
    2.3123   -1.9097    0.0000 C   0  0  0  0  0  0  0  0  0  0  0  0
    2.7469   -1.2084    0.0000 C   0  0  0  0  0  0  0  0  0  0  0  0
    3.5715   -1.2342    0.0000 C   0  0  0  0  0  0  0  0  0  0  0  0
    4.0061   -0.5330    0.0000 F   0  0  0  0  0  0  0  0  0  0  0  0
    3.9615   -1.9612    0.0000 C   0  0  0  0  0  0  0  0  0  0  0  0
    4.7861   -1.9870    0.0000 C   0  0  0  0  0  0  0  0  0  0  0  0
    4.8119   -1.1624    0.0000 F   0  0  0  0  0  0  0  0  0  0  0  0
    4.7603   -2.8116    0.0000 C   0  0  0  0  0  0  0  0  0  0  0  0
    4.7346   -3.6362    0.0000 F   0  0  0  0  0  0  0  0  0  0  0  0
    3.9358   -2.7858    0.0000 F   0  0  0  0  0  0  0  0  0  0  0  0
    5.5849   -2.8373    0.0000 F   0  0  0  0  0  0  0  0  0  0  0  0
    5.6107   -2.0127    0.0000 C   0  0  0  0  0  0  0  0  0  0  0  0
    6.4353   -2.0385    0.0000 F   0  0  0  0  0  0  0  0  0  0  0  0
    6.0746   -2.6950    0.0000 F   0  0  0  0  0  0  0  0  0  0  0  0
    5.6365   -1.1881    0.0000 F   0  0  0  0  0  0  0  0  0  0  0  0
    3.5269   -2.6624    0.0000 C   0  0  0  0  0  0  0  0  0  0  0  0
    2.7023   -2.6367    0.0000 C   0  0  0  0  0  0  0  0  0  0  0  0
    2.2677   -3.3379    0.0000 C   0  0  0  0  0  0  0  0  0  0  0  0
    1.4431   -3.3122    0.0000 C   0  0  0  0  0  0  0  0  0  0  0  0
    1.0531   -2.5852    0.0000 C   0  0  1  0  0  0  0  0  0  0  0  0
  2  1  1  1  0  0  0
  2  3  1  0  0  0  0
  4  3  1  0  0  0  0
  4  5  1  6  0  0  0
  5  6  2  0  0  0  0
  5  7  1  0  0  0  0
  4  8  1  0  0  0  0
  8  9  1  0  0  0  0
 10  9  1  0  0  0  0
  2 10  1  0  0  0  0
 10 11  1  1  0  0  0
 11 12  2  0  0  0  0
 11 13  1  0  0  0  0
 13 14  1  0  0  0  0
 14 15  1  0  0  0  0
 16 15  1  0  0  0  0
 16 17  1  6  0  0  0
 17 18  2  0  0  0  0
 17 19  2  0  0  0  0
 17 20  1  0  0  0  0
 20 21  4  0  0  0  0
 21 22  4  0  0  0  0
 22 23  4  0  0  0  0
 23 24  4  0  0  0  0
 24 25  4  0  0  0  0
 20 25  4  0  0  0  0
 16 26  1  0  0  0  0
 26 27  4  0  0  0  0
 27 28  4  0  0  0  0
 28 29  1  0  0  0  0
 28 30  4  0  0  0  0
 30 31  1  0  0  0  0
 31 32  1  0  0  0  0
 31 33  1  0  0  0  0
 33 34  1  0  0  0  0
 33 35  1  0  0  0  0
 33 36  1  0  0  0  0
 31 37  1  0  0  0  0
 37 38  1  0  0  0  0
 37 39  1  0  0  0  0
 37 40  1  0  0  0  0
 30 41  4  0  0  0  0
 41 42  4  0  0  0  0
 26 42  4  0  0  0  0
 42 43  1  0  0  0  0
 43 44  1  0  0  0  0
 45 44  1  0  0  0  0
 45 13  1  1  0  0  0
 16 45  1  0  0  0  0
M  END
>  <CdId>
729

>  <Mol Weight>
667.61

>  <Formula>
C30H29F8NO5S

>  <Molecule ChEMBL ID>
CHEMBL4763134

>  <Molecule Max Phase>
None

>  <Molecular Weight>
667.62

>  <#RO5 Violations>
2

>  <AlogP>
6.47

>  <Compound Key>
15

>  <Standard Type>
IC50

>  <Standard Relation>
'='

>  <Standard Value>
1900.0

>  <Standard Units>
nM

$$$$

  Mrv2114 03112311372D          

 31 34  0  0  1  0            999 V2000
    3.2789    2.0625    0.0000 C   0  0  0  0  0  0  0  0  0  0  0  0
    3.2789    1.2375    0.0000 C   0  0  0  0  0  0  0  0  0  0  0  0
    3.9934    0.8250    0.0000 C   0  0  0  0  0  0  0  0  0  0  0  0
    3.9934    0.0000    0.0000 C   0  0  0  0  0  0  0  0  0  0  0  0
    3.2789   -0.4125    0.0000 C   0  0  0  0  0  0  0  0  0  0  0  0
    3.2789   -1.2375    0.0000 F   0  0  0  0  0  0  0  0  0  0  0  0
    2.5645    0.0000    0.0000 C   0  0  0  0  0  0  0  0  0  0  0  0
    1.7798   -0.2549    0.0000 C   0  0  0  0  0  0  0  0  0  0  0  0
    1.2949    0.4125    0.0000 C   0  0  0  0  0  0  0  0  0  0  0  0
    0.4699    0.4125    0.0000 C   0  0  0  0  0  0  0  0  0  0  0  0
    0.0574   -0.3020    0.0000 O   0  0  0  0  0  0  0  0  0  0  0  0
    0.0574    1.1270    0.0000 N   0  0  0  0  0  0  0  0  0  0  0  0
   -0.7676    1.1270    0.0000 C   0  0  2  0  0  0  0  0  0  0  0  0
   -1.1801    0.4125    0.0000 C   0  0  0  0  0  0  0  0  0  0  0  0
   -2.0051    0.4125    0.0000 C   0  0  0  0  0  0  0  0  0  0  0  0
   -2.4176    1.1270    0.0000 C   0  0  0  0  0  0  0  0  0  0  0  0
   -2.0051    1.8414    0.0000 C   0  0  2  0  0  0  0  0  0  0  0  0
   -2.4176    2.5559    0.0000 N   0  0  0  0  0  0  0  0  0  0  0  0
   -3.2381    2.6421    0.0000 C   0  0  0  0  0  0  0  0  0  0  0  0
   -3.4096    3.4491    0.0000 C   0  0  0  0  0  0  0  0  0  0  0  0
   -2.6951    3.8616    0.0000 C   0  0  2  0  0  0  0  0  0  0  0  0
   -2.6089    4.6821    0.0000 N   0  0  0  0  0  0  0  0  0  0  0  0
   -1.8552    5.0177    0.0000 C   0  0  0  0  0  0  0  0  0  0  0  0
   -3.2763    5.1670    0.0000 S   0  0  0  0  0  0  0  0  0  0  0  0
   -3.9438    5.6519    0.0000 C   0  0  0  0  0  0  0  0  0  0  0  0
   -2.7914    5.8345    0.0000 O   0  0  0  0  0  0  0  0  0  0  0  0
   -3.7613    4.4996    0.0000 O   0  0  0  0  0  0  0  0  0  0  0  0
   -2.0820    3.3096    0.0000 C   0  0  0  0  0  0  0  0  0  0  0  0
   -1.1801    1.8414    0.0000 C   0  0  0  0  0  0  0  0  0  0  0  0
    1.7798    1.0799    0.0000 N   0  0  0  0  0  0  0  0  0  0  0  0
    2.5645    0.8250    0.0000 C   0  0  0  0  0  0  0  0  0  0  0  0
  1  2  1  0  0  0  0
  2  3  4  0  0  0  0
  3  4  4  0  0  0  0
  4  5  4  0  0  0  0
  5  6  1  0  0  0  0
  5  7  4  0  0  0  0
  7  8  4  0  0  0  0
  8  9  4  0  0  0  0
  9 10  1  0  0  0  0
 10 11  2  0  0  0  0
 10 12  1  0  0  0  0
 13 12  1  6  0  0  0
 13 14  1  0  0  0  0
 14 15  1  0  0  0  0
 15 16  1  0  0  0  0
 17 16  1  0  0  0  0
 17 18  1  6  0  0  0
 18 19  1  0  0  0  0
 19 20  1  0  0  0  0
 21 20  1  0  0  0  0
 21 22  1  6  0  0  0
 22 23  1  0  0  0  0
 22 24  1  0  0  0  0
 24 25  1  0  0  0  0
 24 26  2  0  0  0  0
 24 27  2  0  0  0  0
 21 28  1  0  0  0  0
 18 28  1  0  0  0  0
 17 29  1  0  0  0  0
 13 29  1  0  0  0  0
  9 30  4  0  0  0  0
 30 31  4  0  0  0  0
  2 31  4  0  0  0  0
  7 31  4  0  0  0  0
M  STY  1   1 DAT
M  SAL   1  1  30
M  SDT   1 MRV_IMPLICIT_H                                        
M  SDD   1     0.0000    0.0000    DR    ALL  0       0  
M  SED   1 IMPL_H1
M  END
>  <CdId>
730

>  <Mol Weight>
450.57

>  <Formula>
C22H31FN4O3S

>  <Molecule ChEMBL ID>
CHEMBL5091591

>  <Molecule Max Phase>
None

>  <Molecular Weight>
450.58

>  <#RO5 Violations>
0

>  <AlogP>
2.62

>  <Compound Key>
32; EPZ-719

>  <Standard Type>
IC50

>  <Standard Relation>
'='

>  <Standard Value>
16000.0

>  <Standard Units>
nM

$$$$

  Mrv2114 03112311372D          

 29 31  0  0  1  0            999 V2000
    2.2448   -5.6983    0.0000 C   0  0  0  0  0  0  0  0  0  0  0  0
    1.6317   -5.1462    0.0000 C   0  0  0  0  0  0  0  0  0  0  0  0
    0.8247   -5.3178    0.0000 C   0  0  0  0  0  0  0  0  0  0  0  0
    0.4122   -4.6033    0.0000 C   0  0  0  0  0  0  0  0  0  0  0  0
   -0.4083   -4.5170    0.0000 C   0  0  0  0  0  0  0  0  0  0  0  0
   -0.8932   -5.1845    0.0000 C   0  0  0  0  0  0  0  0  0  0  0  0
   -1.7137   -5.0983    0.0000 C   0  0  0  0  0  0  0  0  0  0  0  0
   -2.0492   -4.3446    0.0000 C   0  0  0  0  0  0  0  0  0  0  0  0
   -2.8697   -4.2583    0.0000 C   0  0  0  0  0  0  0  0  0  0  0  0
   -3.6902   -4.1721    0.0000 F   0  0  0  0  0  0  0  0  0  0  0  0
   -2.9560   -5.0788    0.0000 F   0  0  0  0  0  0  0  0  0  0  0  0
   -2.7835   -3.4379    0.0000 F   0  0  0  0  0  0  0  0  0  0  0  0
   -1.5643   -3.6771    0.0000 C   0  0  0  0  0  0  0  0  0  0  0  0
   -0.7438   -3.7634    0.0000 N   0  0  0  0  0  0  0  0  0  0  0  0
    0.9642   -3.9902    0.0000 N   0  0  0  0  0  0  0  0  0  0  0  0
    1.7179   -4.3257    0.0000 C   0  0  0  0  0  0  0  0  0  0  0  0
    2.4324   -3.9132    0.0000 C   0  0  0  0  0  0  0  0  0  0  0  0
    3.1468   -4.3257    0.0000 O   0  0  0  0  0  0  0  0  0  0  0  0
    2.4324   -3.0882    0.0000 N   0  0  0  0  0  0  0  0  0  0  0  0
    3.1468   -2.6757    0.0000 C   0  0  1  0  0  0  0  0  0  0  0  0
    3.8613   -3.0882    0.0000 C   0  0  0  0  0  0  0  0  0  0  0  0
    3.8613   -3.9132    0.0000 N   0  0  0  0  0  0  0  0  0  0  0  0
    3.1468   -1.8507    0.0000 C   0  0  0  0  0  0  0  0  0  0  0  0
    2.4794   -1.3658    0.0000 N   0  0  0  0  0  0  0  0  0  0  0  0
    2.7343   -0.5812    0.0000 C   0  0  0  0  0  0  0  0  0  0  0  0
    3.5593   -0.5812    0.0000 C   0  0  0  0  0  0  0  0  0  0  0  0
    4.0443    0.0862    0.0000 C   0  0  0  0  0  0  0  0  0  0  0  0
    3.7087    0.8399    0.0000 O   0  0  0  0  0  0  0  0  0  0  0  0
    3.8143   -1.3658    0.0000 S   0  0  0  0  0  0  0  0  0  0  0  0
  1  2  1  0  0  0  0
  2  3  4  0  0  0  0
  3  4  4  0  0  0  0
  4  5  1  0  0  0  0
  5  6  4  0  0  0  0
  6  7  4  0  0  0  0
  7  8  4  0  0  0  0
  8  9  1  0  0  0  0
  9 10  1  0  0  0  0
  9 11  1  0  0  0  0
  9 12  1  0  0  0  0
  8 13  4  0  0  0  0
 13 14  4  0  0  0  0
  5 14  4  0  0  0  0
  4 15  4  0  0  0  0
 15 16  4  0  0  0  0
  2 16  4  0  0  0  0
 16 17  1  0  0  0  0
 17 18  2  0  0  0  0
 17 19  1  0  0  0  0
 20 19  1  6  0  0  0
 20 21  1  0  0  0  0
 21 22  1  0  0  0  0
 20 23  1  0  0  0  0
 23 24  4  0  0  0  0
 24 25  4  0  0  0  0
 25 26  4  0  0  0  0
 26 27  1  0  0  0  0
 27 28  1  0  0  0  0
 26 29  4  0  0  0  0
 23 29  4  0  0  0  0
M  STY  1   1 DAT
M  SAL   1  1  15
M  SDT   1 MRV_IMPLICIT_H                                        
M  SDD   1     0.0000    0.0000    DR    ALL  0       0  
M  SED   1 IMPL_H1
M  END
>  <CdId>
731

>  <Mol Weight>
425.43

>  <Formula>
C18H18F3N5O2S

>  <Molecule ChEMBL ID>
CHEMBL4447583

>  <Molecule Max Phase>
None

>  <Molecular Weight>
425.44

>  <#RO5 Violations>
0

>  <AlogP>
2.78

>  <Compound Key>
8; NBD-14270

>  <Standard Type>
IC50

>  <Standard Relation>
'>'

>  <Standard Value>
100000.0

>  <Standard Units>
nM

$$$$

  Mrv2114 03112311372D          

 31 34  0  0  1  0            999 V2000
    2.3522    0.3352    0.0000 C   0  0  0  0  0  0  0  0  0  0  0  0
    2.0701    1.1104    0.0000 C   0  0  1  0  0  0  0  0  0  0  0  0
    2.8825    1.2537    0.0000 C   0  0  0  0  0  0  0  0  0  0  0  0
    3.1647    2.0289    0.0000 C   0  0  0  0  0  0  0  0  0  0  0  0
    3.9772    2.1722    0.0000 C   0  0  0  0  0  0  0  0  0  0  0  0
    4.2593    2.9475    0.0000 N   0  0  0  0  0  0  0  0  0  0  0  0
    5.0718    3.0907    0.0000 C   0  0  0  0  0  0  0  0  0  0  0  0
    5.6021    2.4587    0.0000 O   0  0  0  0  0  0  0  0  0  0  0  0
    5.3540    3.8660    0.0000 C   0  0  0  0  0  0  0  0  0  0  0  0
    4.8237    4.4979    0.0000 C   0  0  0  0  0  0  0  0  0  0  0  0
    5.1058    5.2732    0.0000 C   0  0  0  0  0  0  0  0  0  0  0  0
    5.9183    5.4165    0.0000 C   0  0  0  0  0  0  0  0  0  0  0  0
    6.2005    6.1917    0.0000 C   0  0  0  0  0  0  0  0  0  0  0  0
    6.4826    6.9669    0.0000 N   0  0  0  0  0  0  0  0  0  0  0  0
    6.4486    4.7845    0.0000 C   0  0  0  0  0  0  0  0  0  0  0  0
    6.1664    4.0092    0.0000 N   0  0  0  0  0  0  0  0  0  0  0  0
    4.5075    1.5402    0.0000 C   0  0  0  0  0  0  0  0  0  0  0  0
    4.2253    0.7650    0.0000 C   0  0  0  0  0  0  0  0  0  0  0  0
    3.4128    0.6217    0.0000 C   0  0  0  0  0  0  0  0  0  0  0  0
    3.1307   -0.1535    0.0000 F   0  0  0  0  0  0  0  0  0  0  0  0
    1.3556    0.6979    0.0000 C   0  0  0  0  0  0  0  0  0  0  0  0
    0.6411    1.1104    0.0000 N   0  0  0  0  0  0  0  0  0  0  0  0
   -0.1435    0.8555    0.0000 C   0  0  0  0  0  0  0  0  0  0  0  0
   -0.3984    0.0709    0.0000 C   0  0  0  0  0  0  0  0  0  0  0  0
   -0.6534   -0.7137    0.0000 N   0  0  0  0  0  0  0  0  0  0  0  0
   -0.6284    1.5229    0.0000 C   0  0  0  0  0  0  0  0  0  0  0  0
   -0.1435    2.1904    0.0000 N   0  0  0  0  0  0  0  0  0  0  0  0
    0.6411    1.9354    0.0000 C   0  0  0  0  0  0  0  0  0  0  0  0
    1.3556    2.3479    0.0000 C   0  0  0  0  0  0  0  0  0  0  0  0
    1.3556    3.1729    0.0000 N   0  0  0  0  0  0  0  0  0  0  0  0
    2.0701    1.9354    0.0000 N   0  0  0  0  0  0  0  0  0  0  0  0
  2  1  1  1  0  0  0
  2  3  1  6  0  0  0
  3  4  4  0  0  0  0
  4  5  4  0  0  0  0
  5  6  1  0  0  0  0
  6  7  1  0  0  0  0
  7  8  2  0  0  0  0
  7  9  1  0  0  0  0
  9 10  4  0  0  0  0
 10 11  4  0  0  0  0
 11 12  4  0  0  0  0
 12 13  1  0  0  0  0
 13 14  3  0  0  0  0
 12 15  4  0  0  0  0
 15 16  4  0  0  0  0
  9 16  4  0  0  0  0
  5 17  4  0  0  0  0
 17 18  4  0  0  0  0
 18 19  4  0  0  0  0
  3 19  4  0  0  0  0
 19 20  1  0  0  0  0
  2 21  1  0  0  0  0
 21 22  1  0  0  0  0
 22 23  4  0  0  0  0
 23 24  1  0  0  0  0
 24 25  3  0  0  0  0
 23 26  4  0  0  0  0
 26 27  4  0  0  0  0
 27 28  4  0  0  0  0
 22 28  4  0  0  0  0
 28 29  1  0  0  0  0
 29 30  1  0  0  0  0
 29 31  2  0  0  0  0
  2 31  1  0  0  0  0
M  END
>  <CdId>
732

>  <Mol Weight>
414.404

>  <Formula>
C21H15FN8O

>  <Molecule ChEMBL ID>
CHEMBL2152899

>  <Molecule Max Phase>
None

>  <Molecular Weight>
414.4

>  <#RO5 Violations>
0

>  <AlogP>
2.05

>  <Compound Key>
8

>  <Standard Type>
IC50

>  <Standard Relation>
'>'

>  <Standard Value>
10000.0

>  <Standard Units>
nM

$$$$

  Mrv2114 03112311372D          

 31 35  0  0  1  0            999 V2000
    1.8500    2.0625    0.0000 C   0  0  0  0  0  0  0  0  0  0  0  0
    2.5645    2.4750    0.0000 C   0  0  2  0  0  0  0  0  0  0  0  0
    2.5645    3.3000    0.0000 C   0  0  0  0  0  0  0  0  0  0  0  0
    3.2789    3.7125    0.0000 C   0  0  0  0  0  0  0  0  0  0  0  0
    3.9934    3.3000    0.0000 N   0  0  0  0  0  0  0  0  0  0  0  0
    4.7079    3.7125    0.0000 C   0  0  0  0  0  0  0  0  0  0  0  0
    4.7079    4.5375    0.0000 C   0  0  0  0  0  0  0  0  0  0  0  0
    5.4223    4.9500    0.0000 C   0  0  0  0  0  0  0  0  0  0  0  0
    5.4223    5.7750    0.0000 C   0  0  0  0  0  0  0  0  0  0  0  0
    4.7079    6.1875    0.0000 C   0  0  0  0  0  0  0  0  0  0  0  0
    4.7079    7.0125    0.0000 C   0  0  0  0  0  0  0  0  0  0  0  0
    5.4223    7.4250    0.0000 C   0  0  0  0  0  0  0  0  0  0  0  0
    6.1368    7.0125    0.0000 C   0  0  0  0  0  0  0  0  0  0  0  0
    6.1368    6.1875    0.0000 C   0  0  0  0  0  0  0  0  0  0  0  0
    6.1368    4.5375    0.0000 C   0  0  0  0  0  0  0  0  0  0  0  0
    6.1368    3.7125    0.0000 C   0  0  0  0  0  0  0  0  0  0  0  0
    5.4223    3.3000    0.0000 N   0  0  0  0  0  0  0  0  0  0  0  0
    3.9934    2.4750    0.0000 C   0  0  0  0  0  0  0  0  0  0  0  0
    3.2789    2.0625    0.0000 C   0  0  1  0  0  0  0  0  0  0  0  0
    3.2789    1.2375    0.0000 C   0  0  0  0  0  0  0  0  0  0  0  0
    3.9934    0.8250    0.0000 C   0  0  0  0  0  0  0  0  0  0  0  0
    3.9934    0.0000    0.0000 C   0  0  0  0  0  0  0  0  0  0  0  0
    4.7079   -0.4125    0.0000 C   0  0  0  0  0  0  0  0  0  0  0  0
    5.4223   -0.0000    0.0000 F   0  0  0  0  0  0  0  0  0  0  0  0
    4.7079   -1.2375    0.0000 F   0  0  0  0  0  0  0  0  0  0  0  0
    3.2789   -0.4125    0.0000 N   0  0  0  0  0  0  0  0  0  0  0  0
    2.5645    0.0000    0.0000 C   0  0  0  0  0  0  0  0  0  0  0  0
    1.7798   -0.2549    0.0000 N   0  0  0  0  0  0  0  0  0  0  0  0
    1.2949    0.4125    0.0000 C   0  0  0  0  0  0  0  0  0  0  0  0
    1.7798    1.0799    0.0000 N   0  0  0  0  0  0  0  0  0  0  0  0
    2.5645    0.8250    0.0000 N   0  0  0  0  0  0  0  0  0  0  0  0
  2  1  1  6  0  0  0
  2  3  1  0  0  0  0
  3  4  1  0  0  0  0
  4  5  1  0  0  0  0
  5  6  1  0  0  0  0
  6  7  4  0  0  0  0
  7  8  4  0  0  0  0
  8  9  1  0  0  0  0
  9 10  4  0  0  0  0
 10 11  4  0  0  0  0
 11 12  4  0  0  0  0
 12 13  4  0  0  0  0
 13 14  4  0  0  0  0
  9 14  4  0  0  0  0
  8 15  4  0  0  0  0
 15 16  4  0  0  0  0
 16 17  4  0  0  0  0
  6 17  4  0  0  0  0
  5 18  1  0  0  0  0
 19 18  1  0  0  0  0
  2 19  1  0  0  0  0
 19 20  1  1  0  0  0
 20 21  4  0  0  0  0
 21 22  4  0  0  0  0
 22 23  1  0  0  0  0
 23 24  1  0  0  0  0
 23 25  1  0  0  0  0
 22 26  4  0  0  0  0
 26 27  4  0  0  0  0
 27 28  4  0  0  0  0
 28 29  4  0  0  0  0
 29 30  4  0  0  0  0
 30 31  4  0  0  0  0
 20 31  4  0  0  0  0
 27 31  4  0  0  0  0
M  END
>  <CdId>
733

>  <Mol Weight>
420.468

>  <Formula>
C23H22F2N6

>  <Molecule ChEMBL ID>
CHEMBL4741218

>  <Molecule Max Phase>
None

>  <Molecular Weight>
420.47

>  <#RO5 Violations>
0

>  <AlogP>
4.75

>  <Compound Key>
46

>  <Standard Type>
IC50

>  <Standard Relation>
'>'

>  <Standard Value>
10000.0

>  <Standard Units>
nM

$$$$

  Mrv2114 03112311372D          

 25 28  0  0  0  0            999 V2000
    3.2789    3.7125    0.0000 C   0  0  0  0  0  0  0  0  0  0  0  0
    2.5645    3.3000    0.0000 C   0  0  0  0  0  0  0  0  0  0  0  0
    1.8500    3.7125    0.0000 C   0  0  0  0  0  0  0  0  0  0  0  0
    1.1355    3.3000    0.0000 N   0  0  0  0  0  0  0  0  0  0  0  0
    1.1355    2.4750    0.0000 C   0  0  0  0  0  0  0  0  0  0  0  0
    0.4210    2.0625    0.0000 C   0  0  0  0  0  0  0  0  0  0  0  0
    0.4210    1.2375    0.0000 C   0  0  0  0  0  0  0  0  0  0  0  0
   -0.2934    0.8250    0.0000 C   0  0  0  0  0  0  0  0  0  0  0  0
   -0.2934   -0.0000    0.0000 Cl  0  0  0  0  0  0  0  0  0  0  0  0
   -1.0079    1.2375    0.0000 C   0  0  0  0  0  0  0  0  0  0  0  0
   -1.0079    2.0625    0.0000 C   0  0  0  0  0  0  0  0  0  0  0  0
   -0.2934    2.4750    0.0000 C   0  0  0  0  0  0  0  0  0  0  0  0
   -0.2934    3.3000    0.0000 F   0  0  0  0  0  0  0  0  0  0  0  0
    1.8500    2.0625    0.0000 C   0  0  0  0  0  0  0  0  0  0  0  0
    2.5645    2.4750    0.0000 C   0  0  0  0  0  0  0  0  0  0  0  0
    3.2789    2.0625    0.0000 N   0  0  0  0  0  0  0  0  0  0  0  0
    3.2789    1.2375    0.0000 C   0  0  0  0  0  0  0  0  0  0  0  0
    3.9934    0.8250    0.0000 C   0  0  0  0  0  0  0  0  0  0  0  0
    3.9934    0.0000    0.0000 C   0  0  0  0  0  0  0  0  0  0  0  0
    3.2789   -0.4125    0.0000 N   0  0  0  0  0  0  0  0  0  0  0  0
    2.5645    0.0000    0.0000 C   0  0  0  0  0  0  0  0  0  0  0  0
    1.7798   -0.2549    0.0000 C   0  0  0  0  0  0  0  0  0  0  0  0
    1.2949    0.4125    0.0000 N   0  0  0  0  0  0  0  0  0  0  0  0
    1.7798    1.0799    0.0000 N   0  0  0  0  0  0  0  0  0  0  0  0
    2.5645    0.8250    0.0000 C   0  0  0  0  0  0  0  0  0  0  0  0
  1  2  1  0  0  0  0
  2  3  4  0  0  0  0
  3  4  4  0  0  0  0
  4  5  4  0  0  0  0
  5  6  1  0  0  0  0
  6  7  4  0  0  0  0
  7  8  4  0  0  0  0
  8  9  1  0  0  0  0
  8 10  4  0  0  0  0
 10 11  4  0  0  0  0
 11 12  4  0  0  0  0
  6 12  4  0  0  0  0
 12 13  1  0  0  0  0
  5 14  4  0  0  0  0
 14 15  4  0  0  0  0
  2 15  4  0  0  0  0
 15 16  1  0  0  0  0
 16 17  1  0  0  0  0
 17 18  4  0  0  0  0
 18 19  4  0  0  0  0
 19 20  4  0  0  0  0
 20 21  4  0  0  0  0
 21 22  4  0  0  0  0
 22 23  4  0  0  0  0
 23 24  4  0  0  0  0
 24 25  4  0  0  0  0
 17 25  4  0  0  0  0
 21 25  4  0  0  0  0
M  STY  1   1 DAT
M  SAL   1  1  24
M  SDT   1 MRV_IMPLICIT_H                                        
M  SDD   1     0.0000    0.0000    DR    ALL  0       0  
M  SED   1 IMPL_H1
M  END
>  <CdId>
734

>  <Mol Weight>
353.79

>  <Formula>
C18H13ClFN5

>  <Molecule ChEMBL ID>
CHEMBL4084771

>  <Molecule Max Phase>
None

>  <Molecular Weight>
353.79

>  <#RO5 Violations>
0

>  <AlogP>
4.86

>  <Compound Key>
15

>  <Standard Type>
IC50

>  <Standard Relation>
'='

>  <Standard Value>
398.11

>  <Standard Units>
nM

$$$$

  Mrv2114 03112311372D          

 35 39  0  0  0  0            999 V2000
    3.9934    2.4750    0.0000 C   0  0  0  0  0  0  0  0  0  0  0  0
    3.2789    2.0625    0.0000 O   0  0  0  0  0  0  0  0  0  0  0  0
    3.2789    1.2375    0.0000 C   0  0  0  0  0  0  0  0  0  0  0  0
    3.9934    0.8250    0.0000 C   0  0  0  0  0  0  0  0  0  0  0  0
    3.9934    0.0000    0.0000 N   0  0  0  0  0  0  0  0  0  0  0  0
    3.2789   -0.4125    0.0000 C   0  0  0  0  0  0  0  0  0  0  0  0
    3.2789   -1.2375    0.0000 N   0  0  0  0  0  0  0  0  0  0  0  0
    3.9464   -1.7224    0.0000 C   0  0  0  0  0  0  0  0  0  0  0  0
    3.6914   -2.5070    0.0000 N   0  0  0  0  0  0  0  0  0  0  0  0
    2.8664   -2.5070    0.0000 C   0  0  0  0  0  0  0  0  0  0  0  0
    2.3815   -3.1745    0.0000 C   0  0  0  0  0  0  0  0  0  0  0  0
    2.6115   -1.7224    0.0000 N   0  0  0  0  0  0  0  0  0  0  0  0
    2.5645    0.0000    0.0000 C   0  0  0  0  0  0  0  0  0  0  0  0
    1.7798   -0.2549    0.0000 N   0  0  0  0  0  0  0  0  0  0  0  0
    1.2949    0.4125    0.0000 C   0  0  0  0  0  0  0  0  0  0  0  0
    1.7798    1.0799    0.0000 C   0  0  0  0  0  0  0  0  0  0  0  0
    1.5249    1.8646    0.0000 C   0  0  0  0  0  0  0  0  0  0  0  0
    2.0769    2.4777    0.0000 O   0  0  0  0  0  0  0  0  0  0  0  0
    0.7179    2.0361    0.0000 C   0  0  0  0  0  0  0  0  0  0  0  0
    0.1659    1.4230    0.0000 O   0  0  0  0  0  0  0  0  0  0  0  0
    0.4630    2.8207    0.0000 N   0  0  0  0  0  0  0  0  0  0  0  0
   -0.3440    2.9922    0.0000 C   0  0  0  0  0  0  0  0  0  0  0  0
   -0.5989    3.7769    0.0000 C   0  0  0  0  0  0  0  0  0  0  0  0
   -0.0469    4.3900    0.0000 N   0  0  0  0  0  0  0  0  0  0  0  0
   -0.3018    5.1746    0.0000 C   0  0  0  0  0  0  0  0  0  0  0  0
   -1.1088    5.3461    0.0000 O   0  0  0  0  0  0  0  0  0  0  0  0
    0.2502    5.7877    0.0000 C   0  0  0  0  0  0  0  0  0  0  0  0
   -0.0047    6.5723    0.0000 C   0  0  0  0  0  0  0  0  0  0  0  0
    0.5473    7.1854    0.0000 C   0  0  0  0  0  0  0  0  0  0  0  0
    1.3543    7.0139    0.0000 C   0  0  0  0  0  0  0  0  0  0  0  0
    1.6092    6.2292    0.0000 C   0  0  0  0  0  0  0  0  0  0  0  0
    1.0572    5.6161    0.0000 C   0  0  0  0  0  0  0  0  0  0  0  0
    0.7601    4.2184    0.0000 C   0  0  0  0  0  0  0  0  0  0  0  0
    1.0150    3.4338    0.0000 C   0  0  0  0  0  0  0  0  0  0  0  0
    2.5645    0.8250    0.0000 C   0  0  0  0  0  0  0  0  0  0  0  0
  1  2  1  0  0  0  0
  2  3  1  0  0  0  0
  3  4  4  0  0  0  0
  4  5  4  0  0  0  0
  5  6  4  0  0  0  0
  6  7  1  0  0  0  0
  7  8  4  0  0  0  0
  8  9  4  0  0  0  0
  9 10  4  0  0  0  0
 10 11  1  0  0  0  0
 10 12  4  0  0  0  0
  7 12  4  0  0  0  0
  6 13  4  0  0  0  0
 13 14  4  0  0  0  0
 14 15  4  0  0  0  0
 15 16  4  0  0  0  0
 16 17  1  0  0  0  0
 17 18  2  0  0  0  0
 17 19  1  0  0  0  0
 19 20  2  0  0  0  0
 19 21  1  0  0  0  0
 21 22  1  0  0  0  0
 22 23  1  0  0  0  0
 23 24  1  0  0  0  0
 24 25  1  0  0  0  0
 25 26  2  0  0  0  0
 25 27  1  0  0  0  0
 27 28  4  0  0  0  0
 28 29  4  0  0  0  0
 29 30  4  0  0  0  0
 30 31  4  0  0  0  0
 31 32  4  0  0  0  0
 27 32  4  0  0  0  0
 24 33  1  0  0  0  0
 33 34  1  0  0  0  0
 21 34  1  0  0  0  0
 16 35  4  0  0  0  0
  3 35  4  0  0  0  0
 13 35  4  0  0  0  0
M  STY  1   1 DAT
M  SAL   1  1  14
M  SDT   1 MRV_IMPLICIT_H                                        
M  SDD   1     0.0000    0.0000    DR    ALL  0       0  
M  SED   1 IMPL_H1
M  END
>  <CdId>
735

>  <Mol Weight>
473.493

>  <Formula>
C24H23N7O4

>  <Molecule ChEMBL ID>
CHEMBL3301620

>  <Molecule Name>
TEMSAVIR

>  <Molecule Max Phase>
1

>  <Molecular Weight>
473.49

>  <#RO5 Violations>
0

>  <AlogP>
1.63

>  <Compound Key>
BMS-626529

>  <Standard Type>
IC50

>  <Standard Relation>
'='

>  <Standard Value>
25000.0

>  <Standard Units>
nM

$$$$

  Mrv2114 03112311372D          

 27 29  0  0  1  0            999 V2000
    1.0468   -5.8331    0.0000 N   0  0  0  0  0  0  0  0  0  0  0  0
    1.7613   -5.4206    0.0000 C   0  0  0  0  0  0  0  0  0  0  0  0
    1.7613   -4.5956    0.0000 C   0  0  2  0  0  0  0  0  0  0  0  0
    2.4757   -4.1831    0.0000 N   0  0  0  0  0  0  0  0  0  0  0  0
    3.1902   -4.5956    0.0000 C   0  0  0  0  0  0  0  0  0  0  0  0
    3.1902   -5.4206    0.0000 O   0  0  0  0  0  0  0  0  0  0  0  0
    3.9047   -4.1831    0.0000 C   0  0  0  0  0  0  0  0  0  0  0  0
    3.9909   -3.3626    0.0000 C   0  0  0  0  0  0  0  0  0  0  0  0
    4.7979   -3.1911    0.0000 C   0  0  0  0  0  0  0  0  0  0  0  0
    5.2104   -3.9056    0.0000 C   0  0  0  0  0  0  0  0  0  0  0  0
    6.0309   -3.9918    0.0000 C   0  0  0  0  0  0  0  0  0  0  0  0
    6.5158   -3.3244    0.0000 C   0  0  0  0  0  0  0  0  0  0  0  0
    7.3363   -3.4106    0.0000 C   0  0  0  0  0  0  0  0  0  0  0  0
    7.8212   -2.7432    0.0000 F   0  0  0  0  0  0  0  0  0  0  0  0
    7.6718   -4.1643    0.0000 C   0  0  0  0  0  0  0  0  0  0  0  0
    8.4923   -4.2505    0.0000 Cl  0  0  0  0  0  0  0  0  0  0  0  0
    7.1869   -4.8317    0.0000 C   0  0  0  0  0  0  0  0  0  0  0  0
    7.5225   -5.5854    0.0000 F   0  0  0  0  0  0  0  0  0  0  0  0
    6.3664   -4.7455    0.0000 C   0  0  0  0  0  0  0  0  0  0  0  0
    4.6583   -4.5187    0.0000 N   0  0  0  0  0  0  0  0  0  0  0  0
    1.0468   -4.1831    0.0000 C   0  0  0  0  0  0  0  0  0  0  0  0
    0.2931   -4.5187    0.0000 N   0  0  0  0  0  0  0  0  0  0  0  0
   -0.2589   -3.9056    0.0000 C   0  0  0  0  0  0  0  0  0  0  0  0
   -1.0794   -3.9918    0.0000 C   0  0  0  0  0  0  0  0  0  0  0  0
   -1.4150   -4.7455    0.0000 O   0  0  0  0  0  0  0  0  0  0  0  0
    0.1536   -3.1911    0.0000 C   0  0  0  0  0  0  0  0  0  0  0  0
    0.9606   -3.3626    0.0000 S   0  0  0  0  0  0  0  0  0  0  0  0
  1  2  1  0  0  0  0
  3  2  1  0  0  0  0
  3  4  1  1  0  0  0
  4  5  1  0  0  0  0
  5  6  2  0  0  0  0
  5  7  1  0  0  0  0
  7  8  4  0  0  0  0
  8  9  4  0  0  0  0
  9 10  4  0  0  0  0
 10 11  1  0  0  0  0
 11 12  4  0  0  0  0
 12 13  4  0  0  0  0
 13 14  1  0  0  0  0
 13 15  4  0  0  0  0
 15 16  1  0  0  0  0
 15 17  4  0  0  0  0
 17 18  1  0  0  0  0
 17 19  4  0  0  0  0
 11 19  4  0  0  0  0
 10 20  4  0  0  0  0
  7 20  4  0  0  0  0
  3 21  1  0  0  0  0
 21 22  4  0  0  0  0
 22 23  4  0  0  0  0
 23 24  1  0  0  0  0
 24 25  1  0  0  0  0
 23 26  4  0  0  0  0
 26 27  4  0  0  0  0
 21 27  4  0  0  0  0
M  STY  1   1 DAT
M  SAL   1  1  20
M  SDT   1 MRV_IMPLICIT_H                                        
M  SDD   1     0.0000    0.0000    DR    ALL  0       0  
M  SED   1 IMPL_H1
M  END
>  <CdId>
736

>  <Mol Weight>
412.84

>  <Formula>
C17H15ClF2N4O2S

>  <Molecule ChEMBL ID>
CHEMBL4761836

>  <Molecule Max Phase>
None

>  <Molecular Weight>
412.85

>  <#RO5 Violations>
0

>  <AlogP>
2.99

>  <Compound Key>
39; NBD-14168

>  <Standard Type>
IC50

>  <Standard Relation>
'>'

>  <Standard Value>
25000.0

>  <Standard Units>
nM

$$$$

  Mrv2114 03112311372D          

 30 33  0  0  0  0            999 V2000
    0.4614   -1.3187    0.0000 O   0  0  0  0  0  0  0  0  0  0  0  0
    0.6450   -0.5144    0.0000 C   0  0  0  0  0  0  0  0  0  0  0  0
    0.0000    0.0000    0.0000 C   0  0  0  0  0  0  0  0  0  0  0  0
   -0.7145   -0.4125    0.0000 C   0  0  0  0  0  0  0  0  0  0  0  0
   -1.4289    0.0000    0.0000 C   0  0  0  0  0  0  0  0  0  0  0  0
   -2.1434   -0.4125    0.0000 C   0  0  0  0  0  0  0  0  0  0  0  0
   -2.1434   -1.2375    0.0000 C   0  0  0  0  0  0  0  0  0  0  0  0
   -2.8579   -1.6500    0.0000 C   0  0  0  0  0  0  0  0  0  0  0  0
   -3.5724   -1.2375    0.0000 C   0  0  0  0  0  0  0  0  0  0  0  0
   -4.2868   -1.6500    0.0000 O   0  0  0  0  0  0  0  0  0  0  0  0
   -5.0013   -1.2375    0.0000 C   0  0  0  0  0  0  0  0  0  0  0  0
   -5.7158   -0.8250    0.0000 F   0  0  0  0  0  0  0  0  0  0  0  0
   -5.4138   -1.9520    0.0000 F   0  0  0  0  0  0  0  0  0  0  0  0
   -4.5888   -0.5230    0.0000 F   0  0  0  0  0  0  0  0  0  0  0  0
   -3.5724   -0.4125    0.0000 C   0  0  0  0  0  0  0  0  0  0  0  0
   -2.8579    0.0000    0.0000 C   0  0  0  0  0  0  0  0  0  0  0  0
   -1.4289    0.8250    0.0000 C   0  0  0  0  0  0  0  0  0  0  0  0
   -0.7145    1.2375    0.0000 C   0  0  0  0  0  0  0  0  0  0  0  0
   -0.0000    0.8250    0.0000 C   0  0  0  0  0  0  0  0  0  0  0  0
    0.6450    1.3394    0.0000 O   0  0  0  0  0  0  0  0  0  0  0  0
    1.4493    1.1558    0.0000 C   0  0  0  0  0  0  0  0  0  0  0  0
    1.8073    0.4125    0.0000 C   0  0  0  0  0  0  0  0  0  0  0  0
    1.4493   -0.3308    0.0000 N   0  0  0  0  0  0  0  0  0  0  0  0
    1.9637   -0.9758    0.0000 C   0  0  0  0  0  0  0  0  0  0  0  0
    1.6623   -1.7438    0.0000 C   0  0  0  0  0  0  0  0  0  0  0  0
    2.1767   -2.3888    0.0000 N   0  0  0  0  0  0  0  0  0  0  0  0
    1.8753   -3.1568    0.0000 C   0  0  0  0  0  0  0  0  0  0  0  0
    1.0595   -3.2797    0.0000 C   0  0  0  0  0  0  0  0  0  0  0  0
    0.5451   -2.6347    0.0000 C   0  0  0  0  0  0  0  0  0  0  0  0
    0.8465   -1.8667    0.0000 N   0  0  0  0  0  0  0  0  0  0  0  0
  1  2  2  0  0  0  0
  2  3  1  0  0  0  0
  3  4  4  0  0  0  0
  4  5  4  0  0  0  0
  5  6  1  0  0  0  0
  6  7  4  0  0  0  0
  7  8  4  0  0  0  0
  8  9  4  0  0  0  0
  9 10  1  0  0  0  0
 10 11  1  0  0  0  0
 11 12  1  0  0  0  0
 11 13  1  0  0  0  0
 11 14  1  0  0  0  0
  9 15  4  0  0  0  0
 15 16  4  0  0  0  0
  6 16  4  0  0  0  0
  5 17  4  0  0  0  0
 17 18  4  0  0  0  0
 18 19  4  0  0  0  0
  3 19  4  0  0  0  0
 19 20  1  0  0  0  0
 20 21  1  0  0  0  0
 21 22  1  0  0  0  0
 22 23  1  0  0  0  0
  2 23  1  0  0  0  0
 23 24  1  0  0  0  0
 24 25  1  0  0  0  0
 25 26  4  0  0  0  0
 26 27  4  0  0  0  0
 27 28  4  0  0  0  0
 28 29  4  0  0  0  0
 29 30  4  0  0  0  0
 25 30  4  0  0  0  0
M  END
>  <CdId>
737

>  <Mol Weight>
415.372

>  <Formula>
C21H16F3N3O3

>  <Molecule ChEMBL ID>
CHEMBL3707392

>  <Molecule Name>
ELECLAZINE

>  <Molecule Max Phase>
3

>  <Molecular Weight>
415.37

>  <#RO5 Violations>
0

>  <AlogP>
4.08

>  <Compound Key>
4; GS-6615

>  <Standard Type>
IC50

>  <Standard Relation>
'>'

>  <Standard Value>
10000.0

>  <Standard Units>
nM

$$$$

  Mrv2114 03112311372D          

 44 48  0  0  1  0            999 V2000
   -1.3007   -1.8299    0.0000 O   0  0  0  0  0  0  0  0  0  0  0  0
   -1.1544   -2.6418    0.0000 C   0  0  0  0  0  0  0  0  0  0  0  0
   -0.3781   -2.9211    0.0000 N   0  0  0  0  0  0  0  0  0  0  0  0
    0.2519   -2.3885    0.0000 C   0  0  2  0  0  0  0  0  0  0  0  0
    0.1913   -1.5657    0.0000 C   0  0  0  0  0  0  0  0  0  0  0  0
    0.9551   -1.2539    0.0000 C   0  0  0  0  0  0  0  0  0  0  0  0
    1.4877   -1.8839    0.0000 C   0  0  1  0  0  0  0  0  0  0  0  0
    1.8467   -1.1411    0.0000 S   0  0  0  0  0  0  0  0  0  0  0  0
    2.5737   -0.7511    0.0000 O   0  0  0  0  0  0  0  0  0  0  0  0
    1.1038   -0.7822    0.0000 O   0  0  0  0  0  0  0  0  0  0  0  0
    2.2056   -0.3983    0.0000 C   0  0  0  0  0  0  0  0  0  0  0  0
    1.7417    0.2840    0.0000 C   0  0  0  0  0  0  0  0  0  0  0  0
    2.1007    1.0268    0.0000 C   0  0  0  0  0  0  0  0  0  0  0  0
    2.9234    1.0874    0.0000 C   0  0  0  0  0  0  0  0  0  0  0  0
    3.2824    1.8302    0.0000 F   0  0  0  0  0  0  0  0  0  0  0  0
    3.3873    0.4051    0.0000 C   0  0  0  0  0  0  0  0  0  0  0  0
    3.0284   -0.3377    0.0000 C   0  0  0  0  0  0  0  0  0  0  0  0
    2.3123   -1.9097    0.0000 C   0  0  0  0  0  0  0  0  0  0  0  0
    2.7469   -1.2084    0.0000 C   0  0  0  0  0  0  0  0  0  0  0  0
    3.5715   -1.2342    0.0000 C   0  0  0  0  0  0  0  0  0  0  0  0
    3.9615   -1.9612    0.0000 C   0  0  0  0  0  0  0  0  0  0  0  0
    4.7861   -1.9870    0.0000 C   0  0  0  0  0  0  0  0  0  0  0  0
    4.8119   -1.1624    0.0000 F   0  0  0  0  0  0  0  0  0  0  0  0
    4.7603   -2.8116    0.0000 C   0  0  0  0  0  0  0  0  0  0  0  0
    4.7346   -3.6362    0.0000 F   0  0  0  0  0  0  0  0  0  0  0  0
    5.5849   -2.8373    0.0000 F   0  0  0  0  0  0  0  0  0  0  0  0
    3.9358   -2.7858    0.0000 F   0  0  0  0  0  0  0  0  0  0  0  0
    5.6107   -2.0127    0.0000 C   0  0  0  0  0  0  0  0  0  0  0  0
    6.4353   -2.0385    0.0000 F   0  0  0  0  0  0  0  0  0  0  0  0
    6.0746   -2.6950    0.0000 F   0  0  0  0  0  0  0  0  0  0  0  0
    5.6365   -1.1881    0.0000 F   0  0  0  0  0  0  0  0  0  0  0  0
    3.5269   -2.6624    0.0000 N   0  0  0  0  0  0  0  0  0  0  0  0
    2.7023   -2.6367    0.0000 C   0  0  0  0  0  0  0  0  0  0  0  0
    2.2677   -3.3379    0.0000 C   0  0  0  0  0  0  0  0  0  0  0  0
    1.4431   -3.3122    0.0000 C   0  0  0  0  0  0  0  0  0  0  0  0
    1.0531   -2.5852    0.0000 C   0  0  1  0  0  0  0  0  0  0  0  0
   -1.7845   -3.1744    0.0000 C   0  0  0  0  0  0  0  0  0  0  0  0
   -1.6382   -3.9864    0.0000 C   0  0  0  0  0  0  0  0  0  0  0  0
   -2.2682   -4.5190    0.0000 C   0  0  0  0  0  0  0  0  0  0  0  0
   -3.0445   -4.2397    0.0000 S   0  0  0  0  0  0  0  0  0  0  0  0
   -3.1848   -5.0527    0.0000 O   0  0  0  0  0  0  0  0  0  0  0  0
   -3.8695   -4.2427    0.0000 O   0  0  0  0  0  0  0  0  0  0  0  0
   -3.1908   -3.4277    0.0000 C   0  0  0  0  0  0  0  0  0  0  0  0
   -2.5607   -2.8951    0.0000 C   0  0  0  0  0  0  0  0  0  0  0  0
  1  2  2  0  0  0  0
  2  3  1  0  0  0  0
  4  3  1  6  0  0  0
  4  5  1  0  0  0  0
  5  6  1  0  0  0  0
  7  6  1  0  0  0  0
  7  8  1  6  0  0  0
  8  9  2  0  0  0  0
  8 10  2  0  0  0  0
  8 11  1  0  0  0  0
 11 12  4  0  0  0  0
 12 13  4  0  0  0  0
 13 14  4  0  0  0  0
 14 15  1  0  0  0  0
 14 16  4  0  0  0  0
 16 17  4  0  0  0  0
 11 17  4  0  0  0  0
  7 18  1  0  0  0  0
 18 19  4  0  0  0  0
 19 20  4  0  0  0  0
 20 21  4  0  0  0  0
 21 22  1  0  0  0  0
 22 23  1  0  0  0  0
 22 24  1  0  0  0  0
 24 25  1  0  0  0  0
 24 26  1  0  0  0  0
 24 27  1  0  0  0  0
 22 28  1  0  0  0  0
 28 29  1  0  0  0  0
 28 30  1  0  0  0  0
 28 31  1  0  0  0  0
 21 32  4  0  0  0  0
 32 33  4  0  0  0  0
 18 33  4  0  0  0  0
 33 34  1  0  0  0  0
 34 35  1  0  0  0  0
 36 35  1  1  0  0  0
 36  4  1  0  0  0  0
 36  7  1  0  0  0  0
  2 37  1  0  0  0  0
 37 38  1  0  0  0  0
 38 39  1  0  0  0  0
 39 40  1  0  0  0  0
 40 41  2  0  0  0  0
 40 42  2  0  0  0  0
 40 43  1  0  0  0  0
 43 44  1  0  0  0  0
 37 44  1  0  0  0  0
M  END
>  <CdId>
738

>  <Mol Weight>
674.62

>  <Formula>
C27H26F8N2O5S2

>  <Molecule ChEMBL ID>
CHEMBL4744956

>  <Molecule Max Phase>
None

>  <Molecular Weight>
674.63

>  <#RO5 Violations>
1

>  <AlogP>
4.85

>  <Compound Key>
8c

>  <Standard Type>
IC50

>  <Standard Relation>
'='

>  <Standard Value>
16000.0

>  <Standard Units>
nM

$$$$

  Mrv2114 03112311372D          

 44 47  0  0  1  0            999 V2000
   -1.2518   -3.8045    0.0000 C   0  0  0  0  0  0  0  0  0  0  0  0
   -1.7845   -3.1744    0.0000 C   0  0  2  0  0  0  0  0  0  0  0  0
   -2.3171   -2.5444    0.0000 O   0  0  0  0  0  0  0  0  0  0  0  0
   -2.4145   -3.7071    0.0000 C   0  0  0  0  0  0  0  0  0  0  0  0
   -3.1908   -3.4277    0.0000 S   0  0  0  0  0  0  0  0  0  0  0  0
   -3.9670   -3.1484    0.0000 C   0  0  0  0  0  0  0  0  0  0  0  0
   -3.4701   -4.2040    0.0000 O   0  0  0  0  0  0  0  0  0  0  0  0
   -2.9115   -2.6515    0.0000 O   0  0  0  0  0  0  0  0  0  0  0  0
   -1.1544   -2.6418    0.0000 C   0  0  0  0  0  0  0  0  0  0  0  0
   -1.3007   -1.8299    0.0000 O   0  0  0  0  0  0  0  0  0  0  0  0
   -0.3781   -2.9211    0.0000 N   0  0  0  0  0  0  0  0  0  0  0  0
    0.2519   -2.3885    0.0000 C   0  0  2  0  0  0  0  0  0  0  0  0
    0.1913   -1.5657    0.0000 C   0  0  0  0  0  0  0  0  0  0  0  0
    0.9551   -1.2539    0.0000 C   0  0  0  0  0  0  0  0  0  0  0  0
    1.4877   -1.8839    0.0000 C   0  0  1  0  0  0  0  0  0  0  0  0
    1.8467   -1.1411    0.0000 S   0  0  0  0  0  0  0  0  0  0  0  0
    2.5737   -0.7511    0.0000 O   0  0  0  0  0  0  0  0  0  0  0  0
    1.1038   -0.7822    0.0000 O   0  0  0  0  0  0  0  0  0  0  0  0
    2.2056   -0.3983    0.0000 C   0  0  0  0  0  0  0  0  0  0  0  0
    1.7417    0.2840    0.0000 C   0  0  0  0  0  0  0  0  0  0  0  0
    2.1007    1.0268    0.0000 C   0  0  0  0  0  0  0  0  0  0  0  0
    2.9234    1.0874    0.0000 C   0  0  0  0  0  0  0  0  0  0  0  0
    3.2824    1.8302    0.0000 F   0  0  0  0  0  0  0  0  0  0  0  0
    3.3873    0.4051    0.0000 C   0  0  0  0  0  0  0  0  0  0  0  0
    3.0284   -0.3377    0.0000 C   0  0  0  0  0  0  0  0  0  0  0  0
    2.3123   -1.9097    0.0000 C   0  0  0  0  0  0  0  0  0  0  0  0
    2.7469   -1.2084    0.0000 C   0  0  0  0  0  0  0  0  0  0  0  0
    3.5715   -1.2342    0.0000 C   0  0  0  0  0  0  0  0  0  0  0  0
    3.9615   -1.9612    0.0000 C   0  0  0  0  0  0  0  0  0  0  0  0
    4.7861   -1.9870    0.0000 C   0  0  0  0  0  0  0  0  0  0  0  0
    4.8119   -1.1624    0.0000 F   0  0  0  0  0  0  0  0  0  0  0  0
    4.7603   -2.8116    0.0000 C   0  0  0  0  0  0  0  0  0  0  0  0
    4.7346   -3.6362    0.0000 F   0  0  0  0  0  0  0  0  0  0  0  0
    3.9358   -2.7858    0.0000 F   0  0  0  0  0  0  0  0  0  0  0  0
    5.5849   -2.8373    0.0000 F   0  0  0  0  0  0  0  0  0  0  0  0
    5.6107   -2.0127    0.0000 C   0  0  0  0  0  0  0  0  0  0  0  0
    6.4353   -2.0385    0.0000 F   0  0  0  0  0  0  0  0  0  0  0  0
    6.0746   -2.6950    0.0000 F   0  0  0  0  0  0  0  0  0  0  0  0
    5.6365   -1.1881    0.0000 F   0  0  0  0  0  0  0  0  0  0  0  0
    3.5269   -2.6624    0.0000 C   0  0  0  0  0  0  0  0  0  0  0  0
    2.7023   -2.6367    0.0000 C   0  0  0  0  0  0  0  0  0  0  0  0
    2.2677   -3.3379    0.0000 C   0  0  0  0  0  0  0  0  0  0  0  0
    1.4431   -3.3122    0.0000 C   0  0  0  0  0  0  0  0  0  0  0  0
    1.0531   -2.5852    0.0000 C   0  0  1  0  0  0  0  0  0  0  0  0
  2  1  1  0  0  0  0
  2  3  1  1  0  0  0
  2  4  1  6  0  0  0
  4  5  1  0  0  0  0
  5  6  1  0  0  0  0
  5  7  2  0  0  0  0
  5  8  2  0  0  0  0
  2  9  1  0  0  0  0
  9 10  2  0  0  0  0
  9 11  1  0  0  0  0
 12 11  1  6  0  0  0
 12 13  1  0  0  0  0
 13 14  1  0  0  0  0
 15 14  1  0  0  0  0
 15 16  1  6  0  0  0
 16 17  2  0  0  0  0
 16 18  2  0  0  0  0
 16 19  1  0  0  0  0
 19 20  4  0  0  0  0
 20 21  4  0  0  0  0
 21 22  4  0  0  0  0
 22 23  1  0  0  0  0
 22 24  4  0  0  0  0
 24 25  4  0  0  0  0
 19 25  4  0  0  0  0
 15 26  1  0  0  0  0
 26 27  4  0  0  0  0
 27 28  4  0  0  0  0
 28 29  4  0  0  0  0
 29 30  1  0  0  0  0
 30 31  1  0  0  0  0
 30 32  1  0  0  0  0
 32 33  1  0  0  0  0
 32 34  1  0  0  0  0
 32 35  1  0  0  0  0
 30 36  1  0  0  0  0
 36 37  1  0  0  0  0
 36 38  1  0  0  0  0
 36 39  1  0  0  0  0
 29 40  4  0  0  0  0
 40 41  4  0  0  0  0
 26 41  4  0  0  0  0
 41 42  1  0  0  0  0
 42 43  1  0  0  0  0
 44 43  1  1  0  0  0
 44 12  1  0  0  0  0
 44 15  1  0  0  0  0
M  END
>  <CdId>
739

>  <Mol Weight>
677.62

>  <Formula>
C27H27F8NO6S2

>  <Molecule ChEMBL ID>
CHEMBL4741364

>  <Molecule Max Phase>
None

>  <Molecular Weight>
677.63

>  <#RO5 Violations>
1

>  <AlogP>
4.42

>  <Compound Key>
3d

>  <Standard Type>
IC50

>  <Standard Relation>
'='

>  <Standard Value>
13000.0

>  <Standard Units>
nM

$$$$

  Mrv2114 03112311372D          

 30 35  0  0  0  0            999 V2000
    9.9204   -0.2978    0.0000 C   0  0  0  0  0  0  0  0  0  0  0  0
    9.9204   -1.1228    0.0000 C   0  0  0  0  0  0  0  0  0  0  0  0
    9.2059   -1.5353    0.0000 C   0  0  0  0  0  0  0  0  0  0  0  0
    8.4915   -1.1228    0.0000 C   0  0  0  0  0  0  0  0  0  0  0  0
    7.7069   -1.3777    0.0000 O   0  0  0  0  0  0  0  0  0  0  0  0
    7.2219   -0.7103    0.0000 C   0  0  0  0  0  0  0  0  0  0  0  0
    6.3969   -0.7103    0.0000 C   0  0  0  0  0  0  0  0  0  0  0  0
    5.9120   -1.3777    0.0000 C   0  0  0  0  0  0  0  0  0  0  0  0
    5.1274   -1.1228    0.0000 S   0  0  0  0  0  0  0  0  0  0  0  0
    5.1274   -0.2978    0.0000 C   0  0  0  0  0  0  0  0  0  0  0  0
    4.4599    0.1872    0.0000 C   0  0  0  0  0  0  0  0  0  0  0  0
    3.7063   -0.1484    0.0000 C   0  0  0  0  0  0  0  0  0  0  0  0
    3.0388    0.3365    0.0000 C   0  0  0  0  0  0  0  0  0  0  0  0
    3.1251    1.1570    0.0000 N   0  0  0  0  0  0  0  0  0  0  0  0
    2.4576    1.6419    0.0000 C   0  0  0  0  0  0  0  0  0  0  0  0
    2.5439    2.4624    0.0000 C   0  0  0  0  0  0  0  0  0  0  0  0
    1.9308    3.0144    0.0000 N   0  0  0  0  0  0  0  0  0  0  0  0
    2.2663    3.7681    0.0000 C   0  0  0  0  0  0  0  0  0  0  0  0
    1.9308    4.5218    0.0000 N   0  0  0  0  0  0  0  0  0  0  0  0
    2.4157    5.1892    0.0000 C   0  0  0  0  0  0  0  0  0  0  0  0
    3.2362    5.1030    0.0000 C   0  0  0  0  0  0  0  0  0  0  0  0
    3.5717    4.3493    0.0000 C   0  0  0  0  0  0  0  0  0  0  0  0
    3.0868    3.6819    0.0000 C   0  0  0  0  0  0  0  0  0  0  0  0
    3.2583    2.8749    0.0000 N   0  0  0  0  0  0  0  0  0  0  0  0
    3.8787    1.4926    0.0000 C   0  0  0  0  0  0  0  0  0  0  0  0
    4.5462    1.0076    0.0000 C   0  0  0  0  0  0  0  0  0  0  0  0
    5.9120   -0.0428    0.0000 N   0  0  0  0  0  0  0  0  0  0  0  0
    7.7069   -0.0428    0.0000 C   0  0  0  0  0  0  0  0  0  0  0  0
    8.4915   -0.2978    0.0000 C   0  0  0  0  0  0  0  0  0  0  0  0
    9.2059    0.1147    0.0000 C   0  0  0  0  0  0  0  0  0  0  0  0
  1  2  4  0  0  0  0
  2  3  4  0  0  0  0
  3  4  4  0  0  0  0
  4  5  4  0  0  0  0
  5  6  4  0  0  0  0
  6  7  1  0  0  0  0
  7  8  4  0  0  0  0
  8  9  4  0  0  0  0
  9 10  4  0  0  0  0
 10 11  1  0  0  0  0
 11 12  1  0  0  0  0
 12 13  1  0  0  0  0
 13 14  1  0  0  0  0
 14 15  1  0  0  0  0
 15 16  1  0  0  0  0
 16 17  4  0  0  0  0
 17 18  4  0  0  0  0
 18 19  4  0  0  0  0
 19 20  4  0  0  0  0
 20 21  4  0  0  0  0
 21 22  4  0  0  0  0
 22 23  4  0  0  0  0
 18 23  4  0  0  0  0
 23 24  4  0  0  0  0
 16 24  4  0  0  0  0
 14 25  1  0  0  0  0
 25 26  1  0  0  0  0
 11 26  1  0  0  0  0
 10 27  4  0  0  0  0
  7 27  4  0  0  0  0
  6 28  4  0  0  0  0
 28 29  4  0  0  0  0
  4 29  4  0  0  0  0
 29 30  4  0  0  0  0
  1 30  4  0  0  0  0
M  STY  1   1 DAT
M  SAL   1  1  24
M  SDT   1 MRV_IMPLICIT_H                                        
M  SDD   1     0.0000    0.0000    DR    ALL  0       0  
M  SED   1 IMPL_H1
M  END
>  <CdId>
740

>  <Mol Weight>
415.52

>  <Formula>
C23H21N5OS

>  <Molecule ChEMBL ID>
CHEMBL4798829

>  <Molecule Max Phase>
None

>  <Molecular Weight>
415.52

>  <#RO5 Violations>
1

>  <AlogP>
5.21

>  <Compound Key>
37; BAY-179

>  <Standard Type>
IC50

>  <Standard Relation>
'='

>  <Standard Value>
7800.0

>  <Standard Units>
nM

$$$$

  Mrv2114 03112311372D          

 35 39  0  0  0  0            999 V2000
    3.0335   -2.3048    0.0000 C   0  0  0  0  0  0  0  0  0  0  0  0
    2.2089   -2.2790    0.0000 C   0  0  0  0  0  0  0  0  0  0  0  0
    1.8189   -1.5520    0.0000 N   0  0  0  0  0  0  0  0  0  0  0  0
    0.9943   -1.5262    0.0000 C   0  0  0  0  0  0  0  0  0  0  0  0
    0.5597   -2.2275    0.0000 O   0  0  0  0  0  0  0  0  0  0  0  0
    0.6043   -0.7992    0.0000 N   0  0  0  0  0  0  0  0  0  0  0  0
   -0.2203   -0.7735    0.0000 C   0  0  0  0  0  0  0  0  0  0  0  0
   -0.6549   -1.4747    0.0000 C   0  0  0  0  0  0  0  0  0  0  0  0
   -0.2649   -2.2017    0.0000 F   0  0  0  0  0  0  0  0  0  0  0  0
   -1.4795   -1.4490    0.0000 C   0  0  0  0  0  0  0  0  0  0  0  0
   -1.9141   -2.1502    0.0000 O   0  0  0  0  0  0  0  0  0  0  0  0
   -2.7387   -2.1244    0.0000 C   0  0  0  0  0  0  0  0  0  0  0  0
   -1.8694   -0.7219    0.0000 C   0  0  0  0  0  0  0  0  0  0  0  0
   -1.4348   -0.0207    0.0000 C   0  0  0  0  0  0  0  0  0  0  0  0
   -1.8248    0.7063    0.0000 O   0  0  0  0  0  0  0  0  0  0  0  0
   -1.3902    1.4075    0.0000 C   0  0  0  0  0  0  0  0  0  0  0  0
   -0.6102   -0.0465    0.0000 C   0  0  0  0  0  0  0  0  0  0  0  0
   -0.1756    0.6548    0.0000 F   0  0  0  0  0  0  0  0  0  0  0  0
    1.0390   -0.0980    0.0000 C   0  0  0  0  0  0  0  0  0  0  0  0
    1.8636   -0.1238    0.0000 C   0  0  0  0  0  0  0  0  0  0  0  0
    2.2982    0.5775    0.0000 C   0  0  0  0  0  0  0  0  0  0  0  0
    3.1228    0.5517    0.0000 N   0  0  0  0  0  0  0  0  0  0  0  0
    3.5127   -0.1753    0.0000 C   0  0  0  0  0  0  0  0  0  0  0  0
    4.3140   -0.3719    0.0000 N   0  0  0  0  0  0  0  0  0  0  0  0
    4.3745   -1.1947    0.0000 C   0  0  0  0  0  0  0  0  0  0  0  0
    5.0758   -1.6293    0.0000 C   0  0  0  0  0  0  0  0  0  0  0  0
    5.0500   -2.4539    0.0000 N   0  0  0  0  0  0  0  0  0  0  0  0
    5.7513   -2.8885    0.0000 C   0  0  0  0  0  0  0  0  0  0  0  0
    5.7255   -3.7131    0.0000 C   0  0  0  0  0  0  0  0  0  0  0  0
    4.9985   -4.1031    0.0000 O   0  0  0  0  0  0  0  0  0  0  0  0
    4.2973   -3.6685    0.0000 C   0  0  0  0  0  0  0  0  0  0  0  0
    4.3230   -2.8439    0.0000 C   0  0  0  0  0  0  0  0  0  0  0  0
    3.6108   -1.5066    0.0000 C   0  0  0  0  0  0  0  0  0  0  0  0
    3.0781   -0.8765    0.0000 C   0  0  0  0  0  0  0  0  0  0  0  0
    2.2535   -0.8508    0.0000 C   0  0  0  0  0  0  0  0  0  0  0  0
  1  2  1  0  0  0  0
  2  3  1  0  0  0  0
  3  4  1  0  0  0  0
  4  5  2  0  0  0  0
  4  6  1  0  0  0  0
  6  7  1  0  0  0  0
  7  8  4  0  0  0  0
  8  9  1  0  0  0  0
  8 10  4  0  0  0  0
 10 11  1  0  0  0  0
 11 12  1  0  0  0  0
 10 13  4  0  0  0  0
 13 14  4  0  0  0  0
 14 15  1  0  0  0  0
 15 16  1  0  0  0  0
 14 17  4  0  0  0  0
  7 17  4  0  0  0  0
 17 18  1  0  0  0  0
  6 19  1  0  0  0  0
 19 20  1  0  0  0  0
 20 21  4  0  0  0  0
 21 22  4  0  0  0  0
 22 23  4  0  0  0  0
 23 24  4  0  0  0  0
 24 25  4  0  0  0  0
 25 26  1  0  0  0  0
 26 27  1  0  0  0  0
 27 28  1  0  0  0  0
 28 29  1  0  0  0  0
 29 30  1  0  0  0  0
 30 31  1  0  0  0  0
 31 32  1  0  0  0  0
 27 32  1  0  0  0  0
 25 33  4  0  0  0  0
 33 34  4  0  0  0  0
 23 34  4  0  0  0  0
 34 35  4  0  0  0  0
 20 35  4  0  0  0  0
  3 35  1  0  0  0  0
M  STY  1   1 DAT
M  SAL   1  1  24
M  SDT   1 MRV_IMPLICIT_H                                        
M  SDD   1     0.0000    0.0000    DR    ALL  0       0  
M  SED   1 IMPL_H1
M  END
>  <CdId>
741

>  <Mol Weight>
487.508

>  <Formula>
C24H27F2N5O4

>  <Molecule ChEMBL ID>
CHEMBL4297522

>  <Molecule Name>
PEMIGATINIB

>  <Molecule Max Phase>
4

>  <Molecular Weight>
487.51

>  <#RO5 Violations>
0

>  <AlogP>
3.66

>  <Compound Key>
38; INCB054828

>  <Standard Type>
IC50

>  <Standard Relation>
'>'

>  <Standard Value>
25000.0

>  <Standard Units>
nM

$$$$

  Mrv2114 03112311372D          

 33 37  0  0  1  0            999 V2000
    2.5645    2.4750    0.0000 C   0  0  0  0  0  0  0  0  0  0  0  0
    3.2789    2.0625    0.0000 N   0  0  0  0  0  0  0  0  0  0  0  0
    3.2789    1.2375    0.0000 C   0  0  0  0  0  0  0  0  0  0  0  0
    3.9934    0.8250    0.0000 N   0  0  0  0  0  0  0  0  0  0  0  0
    3.9934    0.0000    0.0000 C   0  0  0  0  0  0  0  0  0  0  0  0
    4.7079   -0.4125    0.0000 N   0  0  0  0  0  0  0  0  0  0  0  0
    5.4223   -0.0000    0.0000 C   0  0  0  0  0  0  0  0  0  0  0  0
    5.4223    0.8250    0.0000 C   0  0  0  0  0  0  0  0  0  0  0  0
    6.1368    1.2375    0.0000 C   0  0  0  0  0  0  0  0  0  0  0  0
    6.8513    0.8250    0.0000 C   0  0  0  0  0  0  0  0  0  0  0  0
    7.5658    1.2375    0.0000 N   0  0  0  0  0  0  0  0  0  0  0  0
    7.6520    2.0580    0.0000 C   0  0  0  0  0  0  0  0  0  0  0  0
    8.4590    2.2295    0.0000 N   0  0  0  0  0  0  0  0  0  0  0  0
    8.8715    1.5150    0.0000 C   0  0  0  0  0  0  0  0  0  0  0  0
    9.6919    1.4288    0.0000 C   0  0  0  0  0  0  0  0  0  0  0  0
    8.3194    0.9019    0.0000 N   0  0  0  0  0  0  0  0  0  0  0  0
    6.8513   -0.0000    0.0000 C   0  0  0  0  0  0  0  0  0  0  0  0
    7.5658   -0.4125    0.0000 O   0  0  0  0  0  0  0  0  0  0  0  0
    7.5658   -1.2375    0.0000 C   0  0  0  0  0  0  0  0  0  0  0  0
    6.1368   -0.4125    0.0000 C   0  0  0  0  0  0  0  0  0  0  0  0
    3.2789   -0.4125    0.0000 N   0  0  0  0  0  0  0  0  0  0  0  0
    2.5645    0.0000    0.0000 C   0  0  0  0  0  0  0  0  0  0  0  0
    2.5645    0.8250    0.0000 C   0  0  0  0  0  0  0  0  0  0  0  0
    1.7798    1.0799    0.0000 C   0  0  0  0  0  0  0  0  0  0  0  0
    1.2949    0.4125    0.0000 C   0  0  0  0  0  0  0  0  0  0  0  0
    1.7798   -0.2549    0.0000 C   0  0  1  0  0  0  0  0  0  0  0  0
    1.5249   -1.0396    0.0000 C   0  0  0  0  0  0  0  0  0  0  0  0
    2.0769   -1.6527    0.0000 C   0  0  0  0  0  0  0  0  0  0  0  0
    1.8220   -2.4373    0.0000 C   0  0  0  0  0  0  0  0  0  0  0  0
    1.0150   -2.6088    0.0000 C   0  0  0  0  0  0  0  0  0  0  0  0
    0.7601   -3.3934    0.0000 F   0  0  0  0  0  0  0  0  0  0  0  0
    0.4630   -1.9957    0.0000 C   0  0  0  0  0  0  0  0  0  0  0  0
    0.7179   -1.2111    0.0000 C   0  0  0  0  0  0  0  0  0  0  0  0
  1  2  1  0  0  0  0
  2  3  1  0  0  0  0
  3  4  4  0  0  0  0
  4  5  4  0  0  0  0
  5  6  1  0  0  0  0
  6  7  1  0  0  0  0
  7  8  4  0  0  0  0
  8  9  4  0  0  0  0
  9 10  4  0  0  0  0
 10 11  1  0  0  0  0
 11 12  4  0  0  0  0
 12 13  4  0  0  0  0
 13 14  4  0  0  0  0
 14 15  1  0  0  0  0
 14 16  4  0  0  0  0
 11 16  4  0  0  0  0
 10 17  4  0  0  0  0
 17 18  1  0  0  0  0
 18 19  1  0  0  0  0
 17 20  4  0  0  0  0
  7 20  4  0  0  0  0
  5 21  4  0  0  0  0
 21 22  4  0  0  0  0
 22 23  4  0  0  0  0
  3 23  4  0  0  0  0
 23 24  1  0  0  0  0
 24 25  1  0  0  0  0
 26 25  1  0  0  0  0
 26 22  1  0  0  0  0
 26 27  1  6  0  0  0
 27 28  4  0  0  0  0
 28 29  4  0  0  0  0
 29 30  4  0  0  0  0
 30 31  1  0  0  0  0
 30 32  4  0  0  0  0
 32 33  4  0  0  0  0
 27 33  4  0  0  0  0
M  END
>  <CdId>
742

>  <Mol Weight>
445.502

>  <Formula>
C24H24FN7O

>  <Molecule ChEMBL ID>
CHEMBL4209316

>  <Molecule Max Phase>
None

>  <Molecular Weight>
445.5

>  <#RO5 Violations>
0

>  <AlogP>
4.38

>  <Compound Key>
4; BMS-932481

>  <Standard Type>
IC50

>  <Standard Relation>
'='

>  <Standard Value>
4500.0

>  <Standard Units>
nM

$$$$

  Mrv2114 03112311372D          

 54 62  0  0  0  0            999 V2000
    2.7112    0.9482    0.0000 C   0  0  0  0  0  0  0  0  0  0  0  0
    2.7112    0.1232    0.0000 C   0  0  0  0  0  0  0  0  0  0  0  0
    3.4256   -0.2893    0.0000 C   0  0  0  0  0  0  0  0  0  0  0  0
    4.1401    0.1232    0.0000 C   0  0  0  0  0  0  0  0  0  0  0  0
    4.8546   -0.2893    0.0000 C   0  0  0  0  0  0  0  0  0  0  0  0
    4.8546   -1.1143    0.0000 C   0  0  0  0  0  0  0  0  0  0  0  0
    4.1401   -1.5268    0.0000 C   0  0  0  0  0  0  0  0  0  0  0  0
    4.1401   -2.3518    0.0000 C   0  0  0  0  0  0  0  0  0  0  0  0
    3.4256   -2.7643    0.0000 C   0  0  0  0  0  0  0  0  0  0  0  0
    3.4256   -1.1143    0.0000 C   0  0  0  0  0  0  0  0  0  0  0  0
    2.7112   -1.5268    0.0000 N   0  0  0  0  0  0  0  0  0  0  0  0
    2.7112   -2.3518    0.0000 C   0  0  0  0  0  0  0  0  0  0  0  0
    1.9967   -2.7643    0.0000 C   0  0  0  0  0  0  0  0  0  0  0  0
    1.2822   -2.3518    0.0000 N   0  0  0  0  0  0  0  0  0  0  0  0
    0.4976   -2.6067    0.0000 C   0  0  0  0  0  0  0  0  0  0  0  0
    0.0127   -1.9393    0.0000 C   0  0  0  0  0  0  0  0  0  0  0  0
   -0.8123   -1.9393    0.0000 C   0  0  0  0  0  0  0  0  0  0  0  0
   -1.2248   -2.6538    0.0000 N   0  0  0  0  0  0  0  0  0  0  0  0
   -2.0498   -2.6538    0.0000 C   0  0  0  0  0  0  0  0  0  0  0  0
   -2.4623   -3.3682    0.0000 N   0  0  0  0  0  0  0  0  0  0  0  0
   -3.2873   -3.3682    0.0000 C   0  0  0  0  0  0  0  0  0  0  0  0
   -3.6998   -4.0827    0.0000 C   0  0  0  0  0  0  0  0  0  0  0  0
   -4.5248   -4.0827    0.0000 C   0  0  0  0  0  0  0  0  0  0  0  0
   -4.9373   -3.3682    0.0000 C   0  0  0  0  0  0  0  0  0  0  0  0
   -5.7623   -3.3682    0.0000 N   0  0  0  0  0  0  0  0  0  0  0  0
   -6.1748   -4.0827    0.0000 C   0  0  0  0  0  0  0  0  0  0  0  0
   -6.9998   -4.0827    0.0000 C   0  0  0  0  0  0  0  0  0  0  0  0
   -7.4123   -3.3682    0.0000 C   0  0  0  0  0  0  0  0  0  0  0  0
   -8.2373   -3.3682    0.0000 C   0  0  0  0  0  0  0  0  0  0  0  0
   -8.6498   -4.0827    0.0000 O   0  0  0  0  0  0  0  0  0  0  0  0
   -8.6498   -2.6538    0.0000 N   0  0  0  0  0  0  0  0  0  0  0  0
   -9.4467   -2.4402    0.0000 C   0  0  0  0  0  0  0  0  0  0  0  0
   -9.2332   -1.6433    0.0000 C   0  0  0  0  0  0  0  0  0  0  0  0
  -10.0301   -1.4298    0.0000 C   0  0  0  0  0  0  0  0  0  0  0  0
   -9.8165   -0.6329    0.0000 N   0  0  0  0  0  0  0  0  0  0  0  0
  -10.2290    0.0815    0.0000 C   0  0  0  0  0  0  0  0  0  0  0  0
   -9.0197   -0.8465    0.0000 C   0  0  0  0  0  0  0  0  0  0  0  0
   -8.4363   -1.8569    0.0000 C   0  0  0  0  0  0  0  0  0  0  0  0
   -6.9998   -2.6538    0.0000 C   0  0  0  0  0  0  0  0  0  0  0  0
   -6.1748   -2.6538    0.0000 C   0  0  0  0  0  0  0  0  0  0  0  0
   -4.5248   -2.6538    0.0000 C   0  0  0  0  0  0  0  0  0  0  0  0
   -3.6998   -2.6538    0.0000 C   0  0  0  0  0  0  0  0  0  0  0  0
   -3.2873   -1.9393    0.0000 O   0  0  0  0  0  0  0  0  0  0  0  0
   -3.6998   -1.2248    0.0000 C   0  0  0  0  0  0  0  0  0  0  0  0
   -2.4623   -1.9393    0.0000 N   0  0  0  0  0  0  0  0  0  0  0  0
   -2.0498   -1.2248    0.0000 C   0  0  0  0  0  0  0  0  0  0  0  0
   -2.3048   -0.4402    0.0000 N   0  0  0  0  0  0  0  0  0  0  0  0
   -1.6373    0.0447    0.0000 C   0  0  0  0  0  0  0  0  0  0  0  0
   -0.9699   -0.4402    0.0000 C   0  0  0  0  0  0  0  0  0  0  0  0
   -1.2248   -1.2248    0.0000 C   0  0  0  0  0  0  0  0  0  0  0  0
    0.4976   -1.2718    0.0000 C   0  0  0  0  0  0  0  0  0  0  0  0
    1.2822   -1.5268    0.0000 C   0  0  0  0  0  0  0  0  0  0  0  0
    1.9967   -1.1143    0.0000 C   0  0  0  0  0  0  0  0  0  0  0  0
    1.9967   -0.2893    0.0000 O   0  0  0  0  0  0  0  0  0  0  0  0
  1  2  1  0  0  0  0
  2  3  1  0  0  0  0
  3  4  4  0  0  0  0
  4  5  4  0  0  0  0
  5  6  4  0  0  0  0
  6  7  4  0  0  0  0
  7  8  1  0  0  0  0
  8  9  1  0  0  0  0
  7 10  4  0  0  0  0
  3 10  4  0  0  0  0
 10 11  1  0  0  0  0
 11 12  1  0  0  0  0
 12 13  1  0  0  0  0
 13 14  1  0  0  0  0
 14 15  4  0  0  0  0
 15 16  4  0  0  0  0
 16 17  1  0  0  0  0
 17 18  4  0  0  0  0
 18 19  4  0  0  0  0
 19 20  1  0  0  0  0
 20 21  1  0  0  0  0
 21 22  4  0  0  0  0
 22 23  4  0  0  0  0
 23 24  4  0  0  0  0
 24 25  1  0  0  0  0
 25 26  1  0  0  0  0
 26 27  1  0  0  0  0
 27 28  1  0  0  0  0
 28 29  1  0  0  0  0
 29 30  2  0  0  0  0
 29 31  1  0  0  0  0
 31 32  1  0  0  0  0
 32 33  1  0  0  0  0
 33 34  1  0  0  0  0
 34 35  1  0  0  0  0
 35 36  1  0  0  0  0
 35 37  1  0  0  0  0
 33 37  1  0  0  0  0
 33 38  1  0  0  0  0
 31 38  1  0  0  0  0
 28 39  1  0  0  0  0
 39 40  1  0  0  0  0
 25 40  1  0  0  0  0
 24 41  4  0  0  0  0
 41 42  4  0  0  0  0
 21 42  4  0  0  0  0
 42 43  1  0  0  0  0
 43 44  1  0  0  0  0
 19 45  4  0  0  0  0
 45 46  4  0  0  0  0
 46 47  4  0  0  0  0
 47 48  4  0  0  0  0
 48 49  4  0  0  0  0
 49 50  4  0  0  0  0
 17 50  4  0  0  0  0
 46 50  4  0  0  0  0
 16 51  4  0  0  0  0
 51 52  4  0  0  0  0
 14 52  4  0  0  0  0
 52 53  1  0  0  0  0
 11 53  1  0  0  0  0
 53 54  2  0  0  0  0
M  STY  1   1 DAT
M  SAL   1  1  47
M  SDT   1 MRV_IMPLICIT_H                                        
M  SDD   1     0.0000    0.0000    DR    ALL  0       0  
M  SED   1 IMPL_H1
M  END
>  <CdId>
743

>  <Mol Weight>
727.914

>  <Formula>
C42H49N9O3

>  <Molecule ChEMBL ID>
CHEMBL5085753

>  <Molecule Max Phase>
None

>  <Molecular Weight>
727.91

>  <#RO5 Violations>
2

>  <AlogP>
5.95

>  <Compound Key>
25

>  <Standard Type>
IC50

>  <Standard Relation>
'>'

>  <Standard Value>
30000.0

>  <Standard Units>
nM

$$$$

  Mrv2114 03112311372D          

 35 38  0  0  0  0            999 V2000
    2.8882   -3.2241    0.0000 C   0  0  0  0  0  0  0  0  0  0  0  0
    2.1738   -3.6366    0.0000 C   0  0  0  0  0  0  0  0  0  0  0  0
    1.4593   -3.2241    0.0000 C   0  0  0  0  0  0  0  0  0  0  0  0
    0.7448   -3.6366    0.0000 C   0  0  0  0  0  0  0  0  0  0  0  0
    0.0303   -3.2241    0.0000 C   0  0  0  0  0  0  0  0  0  0  0  0
    0.0303   -2.3991    0.0000 C   0  0  0  0  0  0  0  0  0  0  0  0
   -0.6841   -1.9866    0.0000 C   0  0  0  0  0  0  0  0  0  0  0  0
   -1.3986   -1.5741    0.0000 F   0  0  0  0  0  0  0  0  0  0  0  0
   -1.0966   -2.7010    0.0000 F   0  0  0  0  0  0  0  0  0  0  0  0
   -0.2716   -1.2721    0.0000 F   0  0  0  0  0  0  0  0  0  0  0  0
    0.7448   -1.9866    0.0000 C   0  0  0  0  0  0  0  0  0  0  0  0
    1.4593   -2.3991    0.0000 C   0  0  0  0  0  0  0  0  0  0  0  0
    2.1738   -1.9866    0.0000 C   0  0  0  0  0  0  0  0  0  0  0  0
    2.8882   -1.5741    0.0000 F   0  0  0  0  0  0  0  0  0  0  0  0
    2.5863   -2.7010    0.0000 F   0  0  0  0  0  0  0  0  0  0  0  0
    1.7613   -1.2721    0.0000 F   0  0  0  0  0  0  0  0  0  0  0  0
    2.1738   -4.4616    0.0000 N   0  0  0  0  0  0  0  0  0  0  0  0
    2.8412   -4.9465    0.0000 C   0  0  0  0  0  0  0  0  0  0  0  0
    2.5863   -5.7311    0.0000 C   0  0  0  0  0  0  0  0  0  0  0  0
    3.0712   -6.3986    0.0000 N   0  0  0  0  0  0  0  0  0  0  0  0
    2.7356   -7.1522    0.0000 C   0  0  0  0  0  0  0  0  0  0  0  0
    1.9151   -7.2385    0.0000 O   0  0  0  0  0  0  0  0  0  0  0  0
    3.2205   -7.8197    0.0000 C   0  0  0  0  0  0  0  0  0  0  0  0
    4.0455   -7.8197    0.0000 N   0  0  0  0  0  0  0  0  0  0  0  0
    4.3005   -8.6043    0.0000 N   0  0  0  0  0  0  0  0  0  0  0  0
    3.6330   -9.0892    0.0000 C   0  0  0  0  0  0  0  0  0  0  0  0
    3.6330   -9.9142    0.0000 C   0  0  0  0  0  0  0  0  0  0  0  0
    4.3475  -10.3267    0.0000 C   0  0  0  0  0  0  0  0  0  0  0  0
    4.3475  -11.1517    0.0000 N   0  0  0  0  0  0  0  0  0  0  0  0
    3.6330  -11.5642    0.0000 C   0  0  0  0  0  0  0  0  0  0  0  0
    2.9186  -11.1517    0.0000 C   0  0  0  0  0  0  0  0  0  0  0  0
    2.9186  -10.3267    0.0000 N   0  0  0  0  0  0  0  0  0  0  0  0
    2.9656   -8.6043    0.0000 S   0  0  0  0  0  0  0  0  0  0  0  0
    1.7613   -5.7311    0.0000 C   0  0  0  0  0  0  0  0  0  0  0  0
    1.5063   -4.9465    0.0000 N   0  0  0  0  0  0  0  0  0  0  0  0
  1  2  1  0  0  0  0
  2  3  1  0  0  0  0
  3  4  4  0  0  0  0
  4  5  4  0  0  0  0
  5  6  4  0  0  0  0
  6  7  1  0  0  0  0
  7  8  1  0  0  0  0
  7  9  1  0  0  0  0
  7 10  1  0  0  0  0
  6 11  4  0  0  0  0
 11 12  4  0  0  0  0
  3 12  4  0  0  0  0
 12 13  1  0  0  0  0
 13 14  1  0  0  0  0
 13 15  1  0  0  0  0
 13 16  1  0  0  0  0
  2 17  1  0  0  0  0
 17 18  4  0  0  0  0
 18 19  4  0  0  0  0
 19 20  1  0  0  0  0
 20 21  1  0  0  0  0
 21 22  2  0  0  0  0
 21 23  1  0  0  0  0
 23 24  4  0  0  0  0
 24 25  4  0  0  0  0
 25 26  4  0  0  0  0
 26 27  1  0  0  0  0
 27 28  4  0  0  0  0
 28 29  4  0  0  0  0
 29 30  4  0  0  0  0
 30 31  4  0  0  0  0
 31 32  4  0  0  0  0
 27 32  4  0  0  0  0
 26 33  4  0  0  0  0
 23 33  4  0  0  0  0
 19 34  4  0  0  0  0
 34 35  4  0  0  0  0
 17 35  4  0  0  0  0
M  END
>  <CdId>
744

>  <Mol Weight>
513.42

>  <Formula>
C20H13F6N7OS

>  <Molecule ChEMBL ID>
CHEMBL5077430

>  <Molecule Max Phase>
None

>  <Molecular Weight>
513.43

>  <#RO5 Violations>
2

>  <AlogP>
5.09

>  <Compound Key>
Compound 136

>  <Standard Type>
IC50

>  <Standard Relation>
'>'

>  <Standard Value>
50000.0

>  <Standard Units>
nM

$$$$

  Mrv2114 03112311372D          

 45 49  0  0  1  0            999 V2000
   -2.6410   -5.9694    0.0000 N   0  0  0  0  0  0  0  0  0  0  0  0
   -2.6152   -5.1448    0.0000 C   0  0  0  0  0  0  0  0  0  0  0  0
   -2.5894   -4.3202    0.0000 C   0  0  0  0  0  0  0  0  0  0  0  0
   -1.8624   -3.9303    0.0000 C   0  0  0  0  0  0  0  0  0  0  0  0
   -1.8367   -3.1057    0.0000 N   0  0  0  0  0  0  0  0  0  0  0  0
   -2.4887   -2.6001    0.0000 C   0  0  0  0  0  0  0  0  0  0  0  0
   -3.2809   -2.8304    0.0000 O   0  0  0  0  0  0  0  0  0  0  0  0
   -2.2093   -1.8239    0.0000 C   0  0  0  0  0  0  0  0  0  0  0  0
   -1.3847   -1.8496    0.0000 C   0  0  0  0  0  0  0  0  0  0  0  0
   -1.1544   -2.6418    0.0000 C   0  0  1  0  0  0  0  0  0  0  0  0
   -0.3781   -2.9211    0.0000 C   0  0  0  0  0  0  0  0  0  0  0  0
   -0.2319   -3.7331    0.0000 O   0  0  0  0  0  0  0  0  0  0  0  0
    0.2519   -2.3885    0.0000 N   0  0  0  0  0  0  0  0  0  0  0  0
    0.1913   -1.5657    0.0000 C   0  0  0  0  0  0  0  0  0  0  0  0
    0.9551   -1.2539    0.0000 C   0  0  0  0  0  0  0  0  0  0  0  0
    1.4877   -1.8839    0.0000 C   0  0  1  0  0  0  0  0  0  0  0  0
    1.8467   -1.1411    0.0000 S   0  0  0  0  0  0  0  0  0  0  0  0
    2.5737   -0.7511    0.0000 O   0  0  0  0  0  0  0  0  0  0  0  0
    1.1038   -0.7822    0.0000 O   0  0  0  0  0  0  0  0  0  0  0  0
    2.2056   -0.3983    0.0000 C   0  0  0  0  0  0  0  0  0  0  0  0
    1.7417    0.2840    0.0000 C   0  0  0  0  0  0  0  0  0  0  0  0
    2.1007    1.0268    0.0000 C   0  0  0  0  0  0  0  0  0  0  0  0
    2.9234    1.0874    0.0000 C   0  0  0  0  0  0  0  0  0  0  0  0
    3.2824    1.8302    0.0000 F   0  0  0  0  0  0  0  0  0  0  0  0
    3.3873    0.4051    0.0000 C   0  0  0  0  0  0  0  0  0  0  0  0
    3.0284   -0.3377    0.0000 C   0  0  0  0  0  0  0  0  0  0  0  0
    2.3123   -1.9097    0.0000 C   0  0  0  0  0  0  0  0  0  0  0  0
    2.7469   -1.2084    0.0000 C   0  0  0  0  0  0  0  0  0  0  0  0
    3.5715   -1.2342    0.0000 C   0  0  0  0  0  0  0  0  0  0  0  0
    3.9615   -1.9612    0.0000 C   0  0  0  0  0  0  0  0  0  0  0  0
    4.7861   -1.9870    0.0000 C   0  0  0  0  0  0  0  0  0  0  0  0
    4.8119   -1.1624    0.0000 F   0  0  0  0  0  0  0  0  0  0  0  0
    4.7603   -2.8116    0.0000 C   0  0  0  0  0  0  0  0  0  0  0  0
    4.7346   -3.6362    0.0000 F   0  0  0  0  0  0  0  0  0  0  0  0
    3.9358   -2.7858    0.0000 F   0  0  0  0  0  0  0  0  0  0  0  0
    5.5849   -2.8373    0.0000 F   0  0  0  0  0  0  0  0  0  0  0  0
    5.6107   -2.0127    0.0000 C   0  0  0  0  0  0  0  0  0  0  0  0
    6.4353   -2.0385    0.0000 F   0  0  0  0  0  0  0  0  0  0  0  0
    6.0746   -2.6950    0.0000 F   0  0  0  0  0  0  0  0  0  0  0  0
    5.6365   -1.1881    0.0000 F   0  0  0  0  0  0  0  0  0  0  0  0
    3.5269   -2.6624    0.0000 C   0  0  0  0  0  0  0  0  0  0  0  0
    2.7023   -2.6367    0.0000 C   0  0  0  0  0  0  0  0  0  0  0  0
    2.2677   -3.3379    0.0000 C   0  0  0  0  0  0  0  0  0  0  0  0
    1.4431   -3.3122    0.0000 C   0  0  0  0  0  0  0  0  0  0  0  0
    1.0531   -2.5852    0.0000 C   0  0  1  0  0  0  0  0  0  0  0  0
  1  2  3  0  0  0  0
  2  3  1  0  0  0  0
  3  4  1  0  0  0  0
  4  5  1  0  0  0  0
  5  6  1  0  0  0  0
  6  7  2  0  0  0  0
  6  8  1  0  0  0  0
  8  9  1  0  0  0  0
 10  9  1  0  0  0  0
 10  5  1  0  0  0  0
 10 11  1  1  0  0  0
 11 12  2  0  0  0  0
 11 13  1  0  0  0  0
 13 14  1  0  0  0  0
 14 15  1  0  0  0  0
 16 15  1  0  0  0  0
 16 17  1  6  0  0  0
 17 18  2  0  0  0  0
 17 19  2  0  0  0  0
 17 20  1  0  0  0  0
 20 21  4  0  0  0  0
 21 22  4  0  0  0  0
 22 23  4  0  0  0  0
 23 24  1  0  0  0  0
 23 25  4  0  0  0  0
 25 26  4  0  0  0  0
 20 26  4  0  0  0  0
 16 27  1  0  0  0  0
 27 28  4  0  0  0  0
 28 29  4  0  0  0  0
 29 30  4  0  0  0  0
 30 31  1  0  0  0  0
 31 32  1  0  0  0  0
 31 33  1  0  0  0  0
 33 34  1  0  0  0  0
 33 35  1  0  0  0  0
 33 36  1  0  0  0  0
 31 37  1  0  0  0  0
 37 38  1  0  0  0  0
 37 39  1  0  0  0  0
 37 40  1  0  0  0  0
 30 41  4  0  0  0  0
 41 42  4  0  0  0  0
 27 42  4  0  0  0  0
 42 43  1  0  0  0  0
 43 44  1  0  0  0  0
 45 44  1  0  0  0  0
 45 13  1  1  0  0  0
 16 45  1  0  0  0  0
M  END
>  <CdId>
745

>  <Mol Weight>
663.58

>  <Formula>
C29H25F8N3O4S

>  <Molecule ChEMBL ID>
CHEMBL4763978

>  <Molecule Max Phase>
None

>  <Molecular Weight>
663.59

>  <#RO5 Violations>
2

>  <AlogP>
5.24

>  <Compound Key>
1e

>  <Standard Type>
IC50

>  <Standard Relation>
'='

>  <Standard Value>
13000.0

>  <Standard Units>
nM

$$$$

  Mrv2114 03112311372D          

 35 38  0  0  0  0            999 V2000
    2.8882   -3.2241    0.0000 C   0  0  0  0  0  0  0  0  0  0  0  0
    2.1738   -3.6366    0.0000 C   0  0  0  0  0  0  0  0  0  0  0  0
    1.4593   -3.2241    0.0000 C   0  0  0  0  0  0  0  0  0  0  0  0
    0.7448   -3.6366    0.0000 C   0  0  0  0  0  0  0  0  0  0  0  0
    0.0303   -3.2241    0.0000 C   0  0  0  0  0  0  0  0  0  0  0  0
    0.0303   -2.3991    0.0000 C   0  0  0  0  0  0  0  0  0  0  0  0
   -0.6841   -1.9866    0.0000 C   0  0  0  0  0  0  0  0  0  0  0  0
   -1.3986   -1.5741    0.0000 F   0  0  0  0  0  0  0  0  0  0  0  0
   -1.0966   -2.7010    0.0000 F   0  0  0  0  0  0  0  0  0  0  0  0
   -0.2716   -1.2721    0.0000 F   0  0  0  0  0  0  0  0  0  0  0  0
    0.7448   -1.9866    0.0000 C   0  0  0  0  0  0  0  0  0  0  0  0
    1.4593   -2.3991    0.0000 C   0  0  0  0  0  0  0  0  0  0  0  0
    2.1738   -1.9866    0.0000 C   0  0  0  0  0  0  0  0  0  0  0  0
    2.8882   -1.5741    0.0000 F   0  0  0  0  0  0  0  0  0  0  0  0
    2.5863   -2.7010    0.0000 F   0  0  0  0  0  0  0  0  0  0  0  0
    1.7613   -1.2721    0.0000 F   0  0  0  0  0  0  0  0  0  0  0  0
    2.1738   -4.4616    0.0000 N   0  0  0  0  0  0  0  0  0  0  0  0
    2.8412   -4.9465    0.0000 C   0  0  0  0  0  0  0  0  0  0  0  0
    2.5863   -5.7311    0.0000 C   0  0  0  0  0  0  0  0  0  0  0  0
    3.0712   -6.3986    0.0000 N   0  0  0  0  0  0  0  0  0  0  0  0
    2.7356   -7.1522    0.0000 C   0  0  0  0  0  0  0  0  0  0  0  0
    1.9151   -7.2385    0.0000 O   0  0  0  0  0  0  0  0  0  0  0  0
    3.2205   -7.8197    0.0000 C   0  0  0  0  0  0  0  0  0  0  0  0
    4.0455   -7.8197    0.0000 C   0  0  0  0  0  0  0  0  0  0  0  0
    4.3005   -8.6043    0.0000 N   0  0  0  0  0  0  0  0  0  0  0  0
    3.6330   -9.0892    0.0000 C   0  0  0  0  0  0  0  0  0  0  0  0
    3.6330   -9.9142    0.0000 C   0  0  0  0  0  0  0  0  0  0  0  0
    4.3475  -10.3267    0.0000 C   0  0  0  0  0  0  0  0  0  0  0  0
    4.3475  -11.1517    0.0000 C   0  0  0  0  0  0  0  0  0  0  0  0
    3.6330  -11.5642    0.0000 C   0  0  0  0  0  0  0  0  0  0  0  0
    2.9186  -11.1517    0.0000 C   0  0  0  0  0  0  0  0  0  0  0  0
    2.9186  -10.3267    0.0000 N   0  0  0  0  0  0  0  0  0  0  0  0
    2.9656   -8.6043    0.0000 S   0  0  0  0  0  0  0  0  0  0  0  0
    1.7613   -5.7311    0.0000 C   0  0  0  0  0  0  0  0  0  0  0  0
    1.5063   -4.9465    0.0000 N   0  0  0  0  0  0  0  0  0  0  0  0
  1  2  1  0  0  0  0
  2  3  1  0  0  0  0
  3  4  4  0  0  0  0
  4  5  4  0  0  0  0
  5  6  4  0  0  0  0
  6  7  1  0  0  0  0
  7  8  1  0  0  0  0
  7  9  1  0  0  0  0
  7 10  1  0  0  0  0
  6 11  4  0  0  0  0
 11 12  4  0  0  0  0
  3 12  4  0  0  0  0
 12 13  1  0  0  0  0
 13 14  1  0  0  0  0
 13 15  1  0  0  0  0
 13 16  1  0  0  0  0
  2 17  1  0  0  0  0
 17 18  4  0  0  0  0
 18 19  4  0  0  0  0
 19 20  1  0  0  0  0
 20 21  1  0  0  0  0
 21 22  2  0  0  0  0
 21 23  1  0  0  0  0
 23 24  4  0  0  0  0
 24 25  4  0  0  0  0
 25 26  4  0  0  0  0
 26 27  1  0  0  0  0
 27 28  4  0  0  0  0
 28 29  4  0  0  0  0
 29 30  4  0  0  0  0
 30 31  4  0  0  0  0
 31 32  4  0  0  0  0
 27 32  4  0  0  0  0
 26 33  4  0  0  0  0
 23 33  4  0  0  0  0
 19 34  4  0  0  0  0
 34 35  4  0  0  0  0
 17 35  4  0  0  0  0
M  END
>  <CdId>
746

>  <Mol Weight>
511.45

>  <Formula>
C22H15F6N5OS

>  <Molecule ChEMBL ID>
CHEMBL5087303

>  <Molecule Max Phase>
None

>  <Molecular Weight>
511.45

>  <#RO5 Violations>
2

>  <AlogP>
6.3

>  <Compound Key>
Compound 78

>  <Standard Type>
IC50

>  <Standard Relation>
'='

>  <Standard Value>
1800.0

>  <Standard Units>
nM

$$$$

  Mrv2114 03112311372D          

 21 23  0  0  0  0            999 V2000
    5.2955    4.0936    0.0000 C   0  0  0  0  0  0  0  0  0  0  0  0
    4.9600    3.3400    0.0000 C   0  0  0  0  0  0  0  0  0  0  0  0
    5.3725    2.6255    0.0000 C   0  0  0  0  0  0  0  0  0  0  0  0
    4.8204    2.0124    0.0000 S   0  0  0  0  0  0  0  0  0  0  0  0
    4.0668    2.3479    0.0000 C   0  0  0  0  0  0  0  0  0  0  0  0
    3.3523    1.9354    0.0000 C   0  0  0  0  0  0  0  0  0  0  0  0
    3.3523    1.1104    0.0000 C   0  0  0  0  0  0  0  0  0  0  0  0
    2.6378    0.6979    0.0000 N   0  0  0  0  0  0  0  0  0  0  0  0
    1.9233    1.1104    0.0000 C   0  0  0  0  0  0  0  0  0  0  0  0
    1.1387    0.8555    0.0000 C   0  0  0  0  0  0  0  0  0  0  0  0
    0.6538    1.5229    0.0000 C   0  0  0  0  0  0  0  0  0  0  0  0
    1.1387    2.1904    0.0000 N   0  0  0  0  0  0  0  0  0  0  0  0
    0.8838    2.9750    0.0000 C   0  0  0  0  0  0  0  0  0  0  0  0
    0.0768    3.1465    0.0000 C   0  0  0  0  0  0  0  0  0  0  0  0
   -0.4752    2.5334    0.0000 O   0  0  0  0  0  0  0  0  0  0  0  0
   -0.1781    3.9312    0.0000 N   0  0  0  0  0  0  0  0  0  0  0  0
   -0.9851    4.1027    0.0000 C   0  0  0  0  0  0  0  0  0  0  0  0
    0.3739    4.5442    0.0000 C   0  0  0  0  0  0  0  0  0  0  0  0
    1.9233    1.9354    0.0000 C   0  0  0  0  0  0  0  0  0  0  0  0
    2.6378    2.3479    0.0000 C   0  0  0  0  0  0  0  0  0  0  0  0
    4.1530    3.1684    0.0000 C   0  0  0  0  0  0  0  0  0  0  0  0
  1  2  1  0  0  0  0
  2  3  4  0  0  0  0
  3  4  4  0  0  0  0
  4  5  4  0  0  0  0
  5  6  1  0  0  0  0
  6  7  4  0  0  0  0
  7  8  4  0  0  0  0
  8  9  4  0  0  0  0
  9 10  4  0  0  0  0
 10 11  4  0  0  0  0
 11 12  4  0  0  0  0
 12 13  1  0  0  0  0
 13 14  1  0  0  0  0
 14 15  2  0  0  0  0
 14 16  1  0  0  0  0
 16 17  1  0  0  0  0
 16 18  1  0  0  0  0
 12 19  4  0  0  0  0
  9 19  4  0  0  0  0
 19 20  4  0  0  0  0
  6 20  4  0  0  0  0
  5 21  4  0  0  0  0
  2 21  4  0  0  0  0
M  END
>  <CdId>
747

>  <Mol Weight>
299.39

>  <Formula>
C16H17N3OS

>  <Molecule ChEMBL ID>
CHEMBL4529810

>  <Molecule Max Phase>
None

>  <Molecular Weight>
299.4

>  <#RO5 Violations>
0

>  <AlogP>
3.16

>  <Compound Key>
32

>  <Standard Type>
IC50

>  <Standard Relation>
'>'

>  <Standard Value>
10000.0

>  <Standard Units>
nM

$$$$

  Mrv2114 03112311372D          

 35 38  0  0  1  0            999 V2000
   -0.0303   -3.2241    0.0000 C   0  0  0  0  0  0  0  0  0  0  0  0
   -0.7448   -3.6366    0.0000 C   0  0  1  0  0  0  0  0  0  0  0  0
   -1.4593   -3.2241    0.0000 C   0  0  0  0  0  0  0  0  0  0  0  0
   -2.1738   -3.6366    0.0000 C   0  0  0  0  0  0  0  0  0  0  0  0
   -2.8882   -3.2241    0.0000 C   0  0  0  0  0  0  0  0  0  0  0  0
   -2.8882   -2.3991    0.0000 C   0  0  0  0  0  0  0  0  0  0  0  0
   -3.6027   -1.9866    0.0000 C   0  0  0  0  0  0  0  0  0  0  0  0
   -4.3172   -1.5741    0.0000 F   0  0  0  0  0  0  0  0  0  0  0  0
   -4.0152   -2.7010    0.0000 F   0  0  0  0  0  0  0  0  0  0  0  0
   -3.1902   -1.2721    0.0000 F   0  0  0  0  0  0  0  0  0  0  0  0
   -2.1738   -1.9866    0.0000 C   0  0  0  0  0  0  0  0  0  0  0  0
   -1.4593   -2.3991    0.0000 C   0  0  0  0  0  0  0  0  0  0  0  0
   -0.7448   -1.9866    0.0000 C   0  0  0  0  0  0  0  0  0  0  0  0
   -0.0303   -1.5741    0.0000 F   0  0  0  0  0  0  0  0  0  0  0  0
   -0.3323   -2.7010    0.0000 F   0  0  0  0  0  0  0  0  0  0  0  0
   -1.1573   -1.2721    0.0000 F   0  0  0  0  0  0  0  0  0  0  0  0
   -0.7448   -4.4616    0.0000 N   0  0  0  0  0  0  0  0  0  0  0  0
   -0.0774   -4.9465    0.0000 C   0  0  0  0  0  0  0  0  0  0  0  0
   -0.3323   -5.7311    0.0000 C   0  0  0  0  0  0  0  0  0  0  0  0
    0.1526   -6.3986    0.0000 N   0  0  0  0  0  0  0  0  0  0  0  0
    0.9731   -6.3123    0.0000 C   0  0  0  0  0  0  0  0  0  0  0  0
    1.3086   -5.5586    0.0000 O   0  0  0  0  0  0  0  0  0  0  0  0
    1.4580   -6.9798    0.0000 C   0  0  0  0  0  0  0  0  0  0  0  0
    2.2830   -6.9798    0.0000 C   0  0  0  0  0  0  0  0  0  0  0  0
    2.5379   -7.7644    0.0000 C   0  0  0  0  0  0  0  0  0  0  0  0
    3.3226   -8.0193    0.0000 C   0  0  0  0  0  0  0  0  0  0  0  0
    3.9357   -7.4673    0.0000 C   0  0  0  0  0  0  0  0  0  0  0  0
    4.7203   -7.7222    0.0000 C   0  0  0  0  0  0  0  0  0  0  0  0
    4.8918   -8.5292    0.0000 C   0  0  0  0  0  0  0  0  0  0  0  0
    4.2787   -9.0812    0.0000 C   0  0  0  0  0  0  0  0  0  0  0  0
    3.4941   -8.8263    0.0000 N   0  0  0  0  0  0  0  0  0  0  0  0
    1.8705   -8.2493    0.0000 O   0  0  0  0  0  0  0  0  0  0  0  0
    1.2031   -7.7644    0.0000 N   0  0  0  0  0  0  0  0  0  0  0  0
   -1.1573   -5.7311    0.0000 C   0  0  0  0  0  0  0  0  0  0  0  0
   -1.4123   -4.9465    0.0000 N   0  0  0  0  0  0  0  0  0  0  0  0
  2  1  1  6  0  0  0
  2  3  1  0  0  0  0
  3  4  4  0  0  0  0
  4  5  4  0  0  0  0
  5  6  4  0  0  0  0
  6  7  1  0  0  0  0
  7  8  1  0  0  0  0
  7  9  1  0  0  0  0
  7 10  1  0  0  0  0
  6 11  4  0  0  0  0
 11 12  4  0  0  0  0
  3 12  4  0  0  0  0
 12 13  1  0  0  0  0
 13 14  1  0  0  0  0
 13 15  1  0  0  0  0
 13 16  1  0  0  0  0
  2 17  1  0  0  0  0
 17 18  4  0  0  0  0
 18 19  4  0  0  0  0
 19 20  1  0  0  0  0
 20 21  1  0  0  0  0
 21 22  2  0  0  0  0
 21 23  1  0  0  0  0
 23 24  4  0  0  0  0
 24 25  4  0  0  0  0
 25 26  1  0  0  0  0
 26 27  4  0  0  0  0
 27 28  4  0  0  0  0
 28 29  4  0  0  0  0
 29 30  4  0  0  0  0
 30 31  4  0  0  0  0
 26 31  4  0  0  0  0
 25 32  4  0  0  0  0
 32 33  4  0  0  0  0
 23 33  4  0  0  0  0
 19 34  4  0  0  0  0
 34 35  4  0  0  0  0
 17 35  4  0  0  0  0
M  END
>  <CdId>
748

>  <Mol Weight>
495.385

>  <Formula>
C22H15F6N5O2

>  <Molecule ChEMBL ID>
CHEMBL5088282

>  <Molecule Max Phase>
None

>  <Molecular Weight>
495.38

>  <#RO5 Violations>
1

>  <AlogP>
5.83

>  <Compound Key>
Enantiomer A of Example S5 (Cpd 5)

>  <Standard Type>
IC50

>  <Standard Relation>
'='

>  <Standard Value>
860.0

>  <Standard Units>
nM

$$$$

  Mrv2114 03112311372D          

 38 39  0  0  1  0            999 V2000
   -0.7145   -1.2375    0.0000 C   0  0  0  0  0  0  0  0  0  0  0  0
   -0.7145   -0.4125    0.0000 C   0  0  0  0  0  0  0  0  0  0  0  0
    0.0000   -0.0000    0.0000 N   0  0  0  0  0  0  0  0  0  0  0  0
    0.0000    0.8250    0.0000 C   0  0  0  0  0  0  0  0  0  0  0  0
    0.7145    1.2375    0.0000 C   0  0  0  0  0  0  0  0  0  0  0  0
    0.7145   -0.4125    0.0000 C   0  0  0  0  0  0  0  0  0  0  0  0
    1.4289   -0.0000    0.0000 O   0  0  0  0  0  0  0  0  0  0  0  0
    0.7145   -1.2375    0.0000 C   0  0  0  0  0  0  0  0  0  0  0  0
    0.0470   -1.7224    0.0000 N   0  0  0  0  0  0  0  0  0  0  0  0
    0.3020   -2.5070    0.0000 C   0  0  0  0  0  0  0  0  0  0  0  0
   -0.1830   -3.1745    0.0000 C   0  0  0  0  0  0  0  0  0  0  0  0
    0.1526   -3.9282    0.0000 O   0  0  0  0  0  0  0  0  0  0  0  0
   -1.0034   -3.0882    0.0000 N   0  0  0  0  0  0  0  0  0  0  0  0
   -1.3390   -2.3346    0.0000 C   0  0  0  0  0  0  0  0  0  0  0  0
   -2.1595   -2.2483    0.0000 C   0  0  0  0  0  0  0  0  0  0  0  0
   -2.9800   -2.1621    0.0000 C   0  0  0  0  0  0  0  0  0  0  0  0
   -2.2457   -3.0688    0.0000 C   0  0  0  0  0  0  0  0  0  0  0  0
   -2.0732   -1.4279    0.0000 O   0  0  0  0  0  0  0  0  0  0  0  0
    1.1270   -2.5070    0.0000 S   0  0  0  0  0  0  0  0  0  0  0  0
    1.3819   -1.7224    0.0000 C   0  0  0  0  0  0  0  0  0  0  0  0
    2.1665   -1.4675    0.0000 C   0  0  0  0  0  0  0  0  0  0  0  0
    2.3381   -0.6605    0.0000 C   0  0  0  0  0  0  0  0  0  0  0  0
    3.1227   -0.4056    0.0000 C   0  0  0  0  0  0  0  0  0  0  0  0
    3.7358   -0.9576    0.0000 C   0  0  0  0  0  0  0  0  0  0  0  0
    4.5204   -0.7027    0.0000 S   0  0  0  0  0  0  0  0  0  0  0  0
    4.7753   -1.4873    0.0000 O   0  0  0  0  0  0  0  0  0  0  0  0
    4.2655    0.0820    0.0000 O   0  0  0  0  0  0  0  0  0  0  0  0
    5.3050   -0.4477    0.0000 N   0  0  0  0  0  0  0  0  0  0  0  0
    5.4765    0.3592    0.0000 C   0  0  1  0  0  0  0  0  0  0  0  0
    4.8635    0.9113    0.0000 C   0  0  0  0  0  0  0  0  0  0  0  0
    6.2612    0.6142    0.0000 C   0  0  0  0  0  0  0  0  0  0  0  0
    7.0458    0.8691    0.0000 F   0  0  0  0  0  0  0  0  0  0  0  0
    6.5161   -0.1704    0.0000 F   0  0  0  0  0  0  0  0  0  0  0  0
    6.0062    1.3988    0.0000 F   0  0  0  0  0  0  0  0  0  0  0  0
    3.5642   -1.7646    0.0000 C   0  0  0  0  0  0  0  0  0  0  0  0
    4.1773   -2.3166    0.0000 Cl  0  0  0  0  0  0  0  0  0  0  0  0
    2.7796   -2.0195    0.0000 C   0  0  0  0  0  0  0  0  0  0  0  0
    2.6081   -2.8265    0.0000 Cl  0  0  0  0  0  0  0  0  0  0  0  0
  1  2  1  0  0  0  0
  2  3  1  0  0  0  0
  3  4  1  0  0  0  0
  4  5  1  0  0  0  0
  3  6  1  0  0  0  0
  6  7  2  0  0  0  0
  6  8  1  0  0  0  0
  8  9  4  0  0  0  0
  9 10  4  0  0  0  0
 10 11  1  0  0  0  0
 11 12  2  0  0  0  0
 11 13  1  0  0  0  0
 13 14  1  0  0  0  0
 14 15  1  0  0  0  0
 15 16  1  0  0  0  0
 15 17  1  0  0  0  0
 15 18  1  0  0  0  0
 10 19  4  0  0  0  0
 19 20  4  0  0  0  0
  8 20  4  0  0  0  0
 20 21  1  0  0  0  0
 21 22  4  0  0  0  0
 22 23  4  0  0  0  0
 23 24  4  0  0  0  0
 24 25  1  0  0  0  0
 25 26  2  0  0  0  0
 25 27  2  0  0  0  0
 25 28  1  0  0  0  0
 29 28  1  0  0  0  0
 29 30  1  1  0  0  0
 29 31  1  0  0  0  0
 31 32  1  0  0  0  0
 31 33  1  0  0  0  0
 31 34  1  0  0  0  0
 24 35  4  0  0  0  0
 35 36  1  0  0  0  0
 35 37  4  0  0  0  0
 21 37  4  0  0  0  0
 37 38  1  0  0  0  0
M  END
>  <CdId>
749

>  <Mol Weight>
619.5

>  <Formula>
C22H27Cl2F3N4O5S2

>  <Molecule ChEMBL ID>
CHEMBL4643735

>  <Molecule Max Phase>
None

>  <Molecular Weight>
619.51

>  <#RO5 Violations>
1

>  <AlogP>
4.33

>  <Compound Key>
2a

>  <Standard Type>
IC50

>  <Standard Relation>
'>'

>  <Standard Value>
10000.0

>  <Standard Units>
nM

$$$$

  Mrv2114 03112311372D          

 43 45  0  0  1  0            999 V2000
   -2.7512    3.2384    0.0000 C   0  0  0  0  0  0  0  0  0  0  0  0
   -2.0367    2.8259    0.0000 C   0  0  0  0  0  0  0  0  0  0  0  0
   -1.3222    3.2384    0.0000 C   0  0  2  0  0  0  0  0  0  0  0  0
   -0.6078    2.8259    0.0000 N   0  0  0  0  0  0  0  0  0  0  0  0
   -0.6078    2.0009    0.0000 S   0  0  0  0  0  0  0  0  0  0  0  0
   -1.4328    2.0009    0.0000 O   0  0  0  0  0  0  0  0  0  0  0  0
    0.2172    2.0009    0.0000 O   0  0  0  0  0  0  0  0  0  0  0  0
   -0.6078    1.1759    0.0000 C   0  0  0  0  0  0  0  0  0  0  0  0
   -1.3222    0.7634    0.0000 C   0  0  0  0  0  0  0  0  0  0  0  0
   -1.3222   -0.0616    0.0000 C   0  0  0  0  0  0  0  0  0  0  0  0
   -0.6078   -0.4741    0.0000 C   0  0  0  0  0  0  0  0  0  0  0  0
   -0.6078   -1.2991    0.0000 C   0  0  0  0  0  0  0  0  0  0  0  0
    0.0597   -1.7840    0.0000 S   0  0  0  0  0  0  0  0  0  0  0  0
   -0.1953   -2.5687    0.0000 C   0  0  0  0  0  0  0  0  0  0  0  0
    0.2897   -3.2361    0.0000 C   0  0  0  0  0  0  0  0  0  0  0  0
   -0.0459   -3.9898    0.0000 O   0  0  0  0  0  0  0  0  0  0  0  0
    1.1101   -3.1499    0.0000 N   0  0  0  0  0  0  0  0  0  0  0  0
    1.5951   -3.8173    0.0000 C   0  0  0  0  0  0  0  0  0  0  0  0
    1.2595   -4.5710    0.0000 C   0  0  0  0  0  0  0  0  0  0  0  0
    0.9239   -5.3246    0.0000 C   0  0  0  0  0  0  0  0  0  0  0  0
    0.5058   -4.2354    0.0000 C   0  0  0  0  0  0  0  0  0  0  0  0
    2.0132   -4.9065    0.0000 O   0  0  0  0  0  0  0  0  0  0  0  0
   -1.0203   -2.5687    0.0000 N   0  0  0  0  0  0  0  0  0  0  0  0
   -1.2752   -1.7840    0.0000 C   0  0  0  0  0  0  0  0  0  0  0  0
   -2.0598   -1.5291    0.0000 C   0  0  0  0  0  0  0  0  0  0  0  0
   -2.2314   -0.7221    0.0000 O   0  0  0  0  0  0  0  0  0  0  0  0
   -2.6729   -2.0811    0.0000 N   0  0  0  0  0  0  0  0  0  0  0  0
   -2.5014   -2.8881    0.0000 C   0  0  0  0  0  0  0  0  0  0  0  0
   -3.1145   -3.4401    0.0000 C   0  0  0  0  0  0  0  0  0  0  0  0
   -3.8991   -3.1852    0.0000 C   0  0  0  0  0  0  0  0  0  0  0  0
   -4.0706   -2.3782    0.0000 C   0  0  0  0  0  0  0  0  0  0  0  0
   -3.4575   -1.8262    0.0000 C   0  0  2  0  0  0  0  0  0  0  0  0
   -3.6291   -1.0192    0.0000 C   0  0  0  0  0  0  0  0  0  0  0  0
    0.1067   -0.0616    0.0000 C   0  0  0  0  0  0  0  0  0  0  0  0
    0.8212   -0.4741    0.0000 C   0  0  0  0  0  0  0  0  0  0  0  0
    0.8212   -1.2991    0.0000 F   0  0  0  0  0  0  0  0  0  0  0  0
    1.5356   -0.0616    0.0000 F   0  0  0  0  0  0  0  0  0  0  0  0
    0.1067    0.7634    0.0000 C   0  0  0  0  0  0  0  0  0  0  0  0
    0.8212    1.1759    0.0000 F   0  0  0  0  0  0  0  0  0  0  0  0
   -1.3222    4.0634    0.0000 C   0  0  0  0  0  0  0  0  0  0  0  0
   -1.3222    4.8884    0.0000 F   0  0  0  0  0  0  0  0  0  0  0  0
   -2.1472    4.0634    0.0000 F   0  0  0  0  0  0  0  0  0  0  0  0
   -0.4972    4.0634    0.0000 F   0  0  0  0  0  0  0  0  0  0  0  0
  1  2  1  0  0  0  0
  3  2  1  0  0  0  0
  3  4  1  1  0  0  0
  4  5  1  0  0  0  0
  5  6  2  0  0  0  0
  5  7  2  0  0  0  0
  5  8  1  0  0  0  0
  8  9  4  0  0  0  0
  9 10  4  0  0  0  0
 10 11  4  0  0  0  0
 11 12  1  0  0  0  0
 12 13  4  0  0  0  0
 13 14  4  0  0  0  0
 14 15  1  0  0  0  0
 15 16  2  0  0  0  0
 15 17  1  0  0  0  0
 17 18  1  0  0  0  0
 18 19  1  0  0  0  0
 19 20  1  0  0  0  0
 19 21  1  0  0  0  0
 19 22  1  0  0  0  0
 14 23  4  0  0  0  0
 23 24  4  0  0  0  0
 12 24  4  0  0  0  0
 24 25  1  0  0  0  0
 25 26  2  0  0  0  0
 25 27  1  0  0  0  0
 27 28  1  0  0  0  0
 28 29  1  0  0  0  0
 29 30  1  0  0  0  0
 30 31  1  0  0  0  0
 32 31  1  0  0  0  0
 32 27  1  0  0  0  0
 32 33  1  6  0  0  0
 11 34  4  0  0  0  0
 34 35  1  0  0  0  0
 35 36  1  0  0  0  0
 35 37  1  0  0  0  0
 34 38  4  0  0  0  0
  8 38  4  0  0  0  0
 38 39  1  0  0  0  0
  3 40  1  0  0  0  0
 40 41  1  0  0  0  0
 40 42  1  0  0  0  0
 40 43  1  0  0  0  0
M  END
>  <CdId>
750

>  <Mol Weight>
658.68

>  <Formula>
C26H32F6N4O5S2

>  <Molecule ChEMBL ID>
CHEMBL4646215

>  <Molecule Max Phase>
None

>  <Molecular Weight>
658.69

>  <#RO5 Violations>
2

>  <AlogP>
5.02

>  <Compound Key>
5j

>  <Standard Type>
IC50

>  <Standard Relation>
'>'

>  <Standard Value>
10000.0

>  <Standard Units>
nM

$$$$

  Mrv2114 03112311372D          

 45 49  0  0  1  0            999 V2000
   -2.6410   -5.9694    0.0000 N   0  0  0  0  0  0  0  0  0  0  0  0
   -2.6152   -5.1448    0.0000 C   0  0  0  0  0  0  0  0  0  0  0  0
   -2.5894   -4.3202    0.0000 C   0  0  0  0  0  0  0  0  0  0  0  0
   -1.8624   -3.9303    0.0000 C   0  0  0  0  0  0  0  0  0  0  0  0
   -1.8367   -3.1057    0.0000 N   0  0  0  0  0  0  0  0  0  0  0  0
   -2.4887   -2.6001    0.0000 C   0  0  0  0  0  0  0  0  0  0  0  0
   -3.2809   -2.8304    0.0000 O   0  0  0  0  0  0  0  0  0  0  0  0
   -2.2093   -1.8239    0.0000 C   0  0  0  0  0  0  0  0  0  0  0  0
   -1.3847   -1.8496    0.0000 C   0  0  0  0  0  0  0  0  0  0  0  0
   -1.1544   -2.6418    0.0000 C   0  0  1  0  0  0  0  0  0  0  0  0
   -0.3781   -2.9211    0.0000 C   0  0  0  0  0  0  0  0  0  0  0  0
   -0.2319   -3.7331    0.0000 O   0  0  0  0  0  0  0  0  0  0  0  0
    0.2519   -2.3885    0.0000 N   0  0  0  0  0  0  0  0  0  0  0  0
    0.1913   -1.5657    0.0000 C   0  0  0  0  0  0  0  0  0  0  0  0
    0.9551   -1.2539    0.0000 C   0  0  0  0  0  0  0  0  0  0  0  0
    1.4877   -1.8839    0.0000 C   0  0  1  0  0  0  0  0  0  0  0  0
    1.8467   -1.1411    0.0000 S   0  0  0  0  0  0  0  0  0  0  0  0
    2.5737   -0.7511    0.0000 O   0  0  0  0  0  0  0  0  0  0  0  0
    1.1038   -0.7822    0.0000 O   0  0  0  0  0  0  0  0  0  0  0  0
    2.2056   -0.3983    0.0000 C   0  0  0  0  0  0  0  0  0  0  0  0
    1.7417    0.2840    0.0000 C   0  0  0  0  0  0  0  0  0  0  0  0
    2.1007    1.0268    0.0000 C   0  0  0  0  0  0  0  0  0  0  0  0
    2.9234    1.0874    0.0000 C   0  0  0  0  0  0  0  0  0  0  0  0
    3.2824    1.8302    0.0000 F   0  0  0  0  0  0  0  0  0  0  0  0
    3.3873    0.4051    0.0000 C   0  0  0  0  0  0  0  0  0  0  0  0
    3.0284   -0.3377    0.0000 C   0  0  0  0  0  0  0  0  0  0  0  0
    2.3123   -1.9097    0.0000 C   0  0  0  0  0  0  0  0  0  0  0  0
    2.7469   -1.2084    0.0000 C   0  0  0  0  0  0  0  0  0  0  0  0
    3.5715   -1.2342    0.0000 C   0  0  0  0  0  0  0  0  0  0  0  0
    3.9615   -1.9612    0.0000 C   0  0  0  0  0  0  0  0  0  0  0  0
    4.7861   -1.9870    0.0000 C   0  0  0  0  0  0  0  0  0  0  0  0
    4.8119   -1.1624    0.0000 F   0  0  0  0  0  0  0  0  0  0  0  0
    4.7603   -2.8116    0.0000 C   0  0  0  0  0  0  0  0  0  0  0  0
    4.7346   -3.6362    0.0000 F   0  0  0  0  0  0  0  0  0  0  0  0
    3.9358   -2.7858    0.0000 F   0  0  0  0  0  0  0  0  0  0  0  0
    5.5849   -2.8373    0.0000 F   0  0  0  0  0  0  0  0  0  0  0  0
    5.6107   -2.0127    0.0000 C   0  0  0  0  0  0  0  0  0  0  0  0
    6.4353   -2.0385    0.0000 F   0  0  0  0  0  0  0  0  0  0  0  0
    6.0746   -2.6950    0.0000 F   0  0  0  0  0  0  0  0  0  0  0  0
    5.6365   -1.1881    0.0000 F   0  0  0  0  0  0  0  0  0  0  0  0
    3.5269   -2.6624    0.0000 N   0  0  0  0  0  0  0  0  0  0  0  0
    2.7023   -2.6367    0.0000 C   0  0  0  0  0  0  0  0  0  0  0  0
    2.2677   -3.3379    0.0000 C   0  0  0  0  0  0  0  0  0  0  0  0
    1.4431   -3.3122    0.0000 C   0  0  0  0  0  0  0  0  0  0  0  0
    1.0531   -2.5852    0.0000 C   0  0  1  0  0  0  0  0  0  0  0  0
  1  2  3  0  0  0  0
  2  3  1  0  0  0  0
  3  4  1  0  0  0  0
  4  5  1  0  0  0  0
  5  6  1  0  0  0  0
  6  7  2  0  0  0  0
  6  8  1  0  0  0  0
  8  9  1  0  0  0  0
 10  9  1  0  0  0  0
 10  5  1  0  0  0  0
 10 11  1  1  0  0  0
 11 12  2  0  0  0  0
 11 13  1  0  0  0  0
 13 14  1  0  0  0  0
 14 15  1  0  0  0  0
 16 15  1  0  0  0  0
 16 17  1  6  0  0  0
 17 18  2  0  0  0  0
 17 19  2  0  0  0  0
 17 20  1  0  0  0  0
 20 21  4  0  0  0  0
 21 22  4  0  0  0  0
 22 23  4  0  0  0  0
 23 24  1  0  0  0  0
 23 25  4  0  0  0  0
 25 26  4  0  0  0  0
 20 26  4  0  0  0  0
 16 27  1  0  0  0  0
 27 28  4  0  0  0  0
 28 29  4  0  0  0  0
 29 30  4  0  0  0  0
 30 31  1  0  0  0  0
 31 32  1  0  0  0  0
 31 33  1  0  0  0  0
 33 34  1  0  0  0  0
 33 35  1  0  0  0  0
 33 36  1  0  0  0  0
 31 37  1  0  0  0  0
 37 38  1  0  0  0  0
 37 39  1  0  0  0  0
 37 40  1  0  0  0  0
 30 41  4  0  0  0  0
 41 42  4  0  0  0  0
 27 42  4  0  0  0  0
 42 43  1  0  0  0  0
 43 44  1  0  0  0  0
 45 44  1  0  0  0  0
 45 13  1  1  0  0  0
 16 45  1  0  0  0  0
M  END
>  <CdId>
751

>  <Mol Weight>
664.57

>  <Formula>
C28H24F8N4O4S

>  <Molecule ChEMBL ID>
CHEMBL4754719

>  <Molecule Max Phase>
None

>  <Molecular Weight>
664.58

>  <#RO5 Violations>
1

>  <AlogP>
4.63

>  <Compound Key>
5b

>  <Standard Type>
IC50

>  <Standard Relation>
'>'

>  <Standard Value>
20000.0

>  <Standard Units>
nM

$$$$

  Mrv2114 03112311372D          

 38 44  0  0  0  0            999 V2000
    6.4970   -1.8338    0.0000 O   0  0  0  0  0  0  0  0  0  0  0  0
    5.7825   -1.4213    0.0000 C   0  0  0  0  0  0  0  0  0  0  0  0
    5.7825   -0.5963    0.0000 O   0  0  0  0  0  0  0  0  0  0  0  0
    5.0680   -1.8338    0.0000 C   0  0  0  0  0  0  0  0  0  0  0  0
    5.0680   -2.6588    0.0000 C   0  0  0  0  0  0  0  0  0  0  0  0
    4.3536   -3.0713    0.0000 C   0  0  0  0  0  0  0  0  0  0  0  0
    4.3536   -3.8963    0.0000 F   0  0  0  0  0  0  0  0  0  0  0  0
    3.6391   -2.6588    0.0000 C   0  0  0  0  0  0  0  0  0  0  0  0
    2.8545   -2.9138    0.0000 N   0  0  0  0  0  0  0  0  0  0  0  0
    2.3695   -2.2463    0.0000 C   0  0  0  0  0  0  0  0  0  0  0  0
    1.5445   -2.2463    0.0000 N   0  0  0  0  0  0  0  0  0  0  0  0
    1.1320   -2.9608    0.0000 C   0  0  0  0  0  0  0  0  0  0  0  0
    0.3070   -2.9608    0.0000 C   0  0  0  0  0  0  0  0  0  0  0  0
   -0.1055   -2.2463    0.0000 C   0  0  0  0  0  0  0  0  0  0  0  0
   -0.6888   -2.8297    0.0000 C   0  0  0  0  0  0  0  0  0  0  0  0
   -1.2722   -2.2463    0.0000 C   0  0  0  0  0  0  0  0  0  0  0  0
   -2.0972   -2.2463    0.0000 C   0  0  0  0  0  0  0  0  0  0  0  0
   -2.5821   -2.9138    0.0000 C   0  0  0  0  0  0  0  0  0  0  0  0
   -2.3272   -3.6984    0.0000 C   0  0  0  0  0  0  0  0  0  0  0  0
   -1.5202   -3.8699    0.0000 C   0  0  0  0  0  0  0  0  0  0  0  0
   -0.9682   -3.2568    0.0000 Cl  0  0  0  0  0  0  0  0  0  0  0  0
   -1.2653   -4.6545    0.0000 C   0  0  0  0  0  0  0  0  0  0  0  0
   -1.8173   -5.2676    0.0000 C   0  0  0  0  0  0  0  0  0  0  0  0
   -2.6243   -5.0961    0.0000 C   0  0  0  0  0  0  0  0  0  0  0  0
   -2.8792   -4.3115    0.0000 C   0  0  0  0  0  0  0  0  0  0  0  0
   -3.6862   -4.1400    0.0000 Cl  0  0  0  0  0  0  0  0  0  0  0  0
   -3.3667   -2.6588    0.0000 N   0  0  0  0  0  0  0  0  0  0  0  0
   -3.3667   -1.8338    0.0000 O   0  0  0  0  0  0  0  0  0  0  0  0
   -2.5821   -1.5789    0.0000 C   0  0  0  0  0  0  0  0  0  0  0  0
   -2.3272   -0.7943    0.0000 C   0  0  0  0  0  0  0  0  0  0  0  0
   -2.4987    0.0127    0.0000 C   0  0  0  0  0  0  0  0  0  0  0  0
   -1.7141   -0.2422    0.0000 C   0  0  0  0  0  0  0  0  0  0  0  0
   -0.6888   -1.6630    0.0000 C   0  0  0  0  0  0  0  0  0  0  0  0
    0.3070   -1.5319    0.0000 C   0  0  0  0  0  0  0  0  0  0  0  0
    1.1320   -1.5319    0.0000 C   0  0  0  0  0  0  0  0  0  0  0  0
    2.8545   -1.5789    0.0000 S   0  0  0  0  0  0  0  0  0  0  0  0
    3.6391   -1.8338    0.0000 C   0  0  0  0  0  0  0  0  0  0  0  0
    4.3536   -1.4213    0.0000 C   0  0  0  0  0  0  0  0  0  0  0  0
  1  2  2  0  0  0  0
  2  3  1  0  0  0  0
  2  4  1  0  0  0  0
  4  5  4  0  0  0  0
  5  6  4  0  0  0  0
  6  7  1  0  0  0  0
  6  8  4  0  0  0  0
  8  9  4  0  0  0  0
  9 10  4  0  0  0  0
 10 11  1  0  0  0  0
 11 12  1  0  0  0  0
 12 13  1  0  0  0  0
 13 14  1  0  0  0  0
 14 15  1  0  0  0  0
 15 16  2  0  0  0  0
 16 17  1  0  0  0  0
 17 18  4  0  0  0  0
 18 19  1  0  0  0  0
 19 20  4  0  0  0  0
 20 21  1  0  0  0  0
 20 22  4  0  0  0  0
 22 23  4  0  0  0  0
 23 24  4  0  0  0  0
 24 25  4  0  0  0  0
 19 25  4  0  0  0  0
 25 26  1  0  0  0  0
 18 27  4  0  0  0  0
 27 28  4  0  0  0  0
 28 29  4  0  0  0  0
 17 29  4  0  0  0  0
 29 30  1  0  0  0  0
 30 31  1  0  0  0  0
 31 32  1  0  0  0  0
 30 32  1  0  0  0  0
 16 33  1  0  0  0  0
 14 33  1  0  0  0  0
 14 34  1  0  0  0  0
 34 35  1  0  0  0  0
 11 35  1  0  0  0  0
 10 36  4  0  0  0  0
 36 37  4  0  0  0  0
  8 37  4  0  0  0  0
 37 38  4  0  0  0  0
  4 38  4  0  0  0  0
M  END
>  <CdId>
752

>  <Mol Weight>
570.46

>  <Formula>
C28H22Cl2FN3O3S

>  <Molecule ChEMBL ID>
CHEMBL4846941

>  <Molecule Max Phase>
None

>  <Molecular Weight>
570.47

>  <#RO5 Violations>
2

>  <AlogP>
8.05

>  <Compound Key>
8

>  <Standard Type>
IC50

>  <Standard Relation>
'='

>  <Standard Value>
6900.0

>  <Standard Units>
nM

$$$$

  Mrv2114 03112311372D          

 31 34  0  0  1  0            999 V2000
    8.3217   -1.4429    0.0000 C   0  0  0  0  0  0  0  0  0  0  0  0
    7.7914   -2.0749    0.0000 O   0  0  0  0  0  0  0  0  0  0  0  0
    6.9789   -1.9316    0.0000 C   0  0  0  0  0  0  0  0  0  0  0  0
    6.4486   -2.5636    0.0000 C   0  0  0  0  0  0  0  0  0  0  0  0
    5.6361   -2.4203    0.0000 N   0  0  0  0  0  0  0  0  0  0  0  0
    5.3540   -1.6451    0.0000 C   0  0  0  0  0  0  0  0  0  0  0  0
    4.5415   -1.5018    0.0000 C   0  0  0  0  0  0  0  0  0  0  0  0
    4.0112   -2.1338    0.0000 O   0  0  0  0  0  0  0  0  0  0  0  0
    4.2593   -0.7266    0.0000 N   0  0  0  0  0  0  0  0  0  0  0  0
    3.4469   -0.5833    0.0000 C   0  0  0  0  0  0  0  0  0  0  0  0
    2.9166   -1.2153    0.0000 C   0  0  0  0  0  0  0  0  0  0  0  0
    2.1041   -1.0720    0.0000 C   0  0  0  0  0  0  0  0  0  0  0  0
    1.8219   -0.2968    0.0000 C   0  0  0  0  0  0  0  0  0  0  0  0
    1.0095   -0.1535    0.0000 F   0  0  0  0  0  0  0  0  0  0  0  0
    2.3522    0.3352    0.0000 C   0  0  0  0  0  0  0  0  0  0  0  0
    2.0701    1.1104    0.0000 C   0  0  2  0  0  0  0  0  0  0  0  0
    2.8825    1.2537    0.0000 C   0  0  0  0  0  0  0  0  0  0  0  0
    1.3556    0.6979    0.0000 C   0  0  0  0  0  0  0  0  0  0  0  0
    0.6411    1.1104    0.0000 N   0  0  0  0  0  0  0  0  0  0  0  0
   -0.1435    0.8555    0.0000 N   0  0  0  0  0  0  0  0  0  0  0  0
   -0.6284    1.5229    0.0000 C   0  0  0  0  0  0  0  0  0  0  0  0
   -1.4534    1.5229    0.0000 C   0  0  0  0  0  0  0  0  0  0  0  0
   -2.2784    1.5229    0.0000 N   0  0  0  0  0  0  0  0  0  0  0  0
   -0.1435    2.1904    0.0000 C   0  0  0  0  0  0  0  0  0  0  0  0
    0.6411    1.9354    0.0000 C   0  0  0  0  0  0  0  0  0  0  0  0
    1.3556    2.3479    0.0000 C   0  0  0  0  0  0  0  0  0  0  0  0
    1.3556    3.1729    0.0000 N   0  0  0  0  0  0  0  0  0  0  0  0
    2.0701    1.9354    0.0000 N   0  0  0  0  0  0  0  0  0  0  0  0
    3.1647    0.1919    0.0000 C   0  0  0  0  0  0  0  0  0  0  0  0
    5.8843   -1.0131    0.0000 C   0  0  0  0  0  0  0  0  0  0  0  0
    6.6967   -1.1563    0.0000 N   0  0  0  0  0  0  0  0  0  0  0  0
  1  2  1  0  0  0  0
  2  3  1  0  0  0  0
  3  4  4  0  0  0  0
  4  5  4  0  0  0  0
  5  6  4  0  0  0  0
  6  7  1  0  0  0  0
  7  8  2  0  0  0  0
  7  9  1  0  0  0  0
  9 10  1  0  0  0  0
 10 11  4  0  0  0  0
 11 12  4  0  0  0  0
 12 13  4  0  0  0  0
 13 14  1  0  0  0  0
 13 15  4  0  0  0  0
 16 15  1  6  0  0  0
 16 17  1  1  0  0  0
 16 18  1  0  0  0  0
 18 19  1  0  0  0  0
 19 20  4  0  0  0  0
 20 21  4  0  0  0  0
 21 22  1  0  0  0  0
 22 23  3  0  0  0  0
 21 24  4  0  0  0  0
 24 25  4  0  0  0  0
 19 25  4  0  0  0  0
 25 26  1  0  0  0  0
 26 27  1  0  0  0  0
 26 28  2  0  0  0  0
 16 28  1  0  0  0  0
 15 29  4  0  0  0  0
 10 29  4  0  0  0  0
  6 30  4  0  0  0  0
 30 31  4  0  0  0  0
  3 31  4  0  0  0  0
M  END
>  <CdId>
753

>  <Mol Weight>
420.408

>  <Formula>
C20H17FN8O2

>  <Molecule ChEMBL ID>
CHEMBL5074068

>  <Molecule Max Phase>
None

>  <Molecular Weight>
420.41

>  <#RO5 Violations>
0

>  <AlogP>
1.58

>  <Compound Key>
36

>  <Standard Type>
IC50

>  <Standard Relation>
'>'

>  <Standard Value>
30000.0

>  <Standard Units>
nM

$$$$

  Mrv2114 03112311372D          

 30 33  0  0  0  0            999 V2000
    3.4990    1.1104    0.0000 C   0  0  0  0  0  0  0  0  0  0  0  0
    2.7845    0.6979    0.0000 O   0  0  0  0  0  0  0  0  0  0  0  0
    2.0701    1.1104    0.0000 C   0  0  0  0  0  0  0  0  0  0  0  0
    1.3556    0.6979    0.0000 C   0  0  0  0  0  0  0  0  0  0  0  0
    0.6411    1.1104    0.0000 C   0  0  0  0  0  0  0  0  0  0  0  0
    0.6411    1.9354    0.0000 C   0  0  0  0  0  0  0  0  0  0  0  0
    1.3556    2.3479    0.0000 C   0  0  0  0  0  0  0  0  0  0  0  0
    2.0701    1.9354    0.0000 C   0  0  0  0  0  0  0  0  0  0  0  0
    2.7845    2.3479    0.0000 O   0  0  0  0  0  0  0  0  0  0  0  0
    3.4990    1.9354    0.0000 C   0  0  0  0  0  0  0  0  0  0  0  0
   -0.1435    2.1904    0.0000 C   0  0  0  0  0  0  0  0  0  0  0  0
   -0.3984    2.9750    0.0000 O   0  0  0  0  0  0  0  0  0  0  0  0
   -0.6284    1.5229    0.0000 C   0  0  0  0  0  0  0  0  0  0  0  0
   -1.4534    1.5229    0.0000 C   0  0  0  0  0  0  0  0  0  0  0  0
   -1.8659    0.8085    0.0000 C   0  0  0  0  0  0  0  0  0  0  0  0
   -2.4979    1.3388    0.0000 F   0  0  0  0  0  0  0  0  0  0  0  0
   -1.0907    0.5263    0.0000 C   0  0  0  0  0  0  0  0  0  0  0  0
   -0.9474   -0.2862    0.0000 C   0  0  0  0  0  0  0  0  0  0  0  0
   -1.5794   -0.8165    0.0000 N   0  0  0  0  0  0  0  0  0  0  0  0
   -1.4362   -1.6289    0.0000 C   0  0  0  0  0  0  0  0  0  0  0  0
   -2.0681   -2.1592    0.0000 C   0  0  0  0  0  0  0  0  0  0  0  0
   -1.9249   -2.9717    0.0000 C   0  0  0  0  0  0  0  0  0  0  0  0
   -2.5569   -3.5020    0.0000 C   0  0  0  0  0  0  0  0  0  0  0  0
   -3.3321   -3.2198    0.0000 C   0  0  0  0  0  0  0  0  0  0  0  0
   -3.4754   -2.4074    0.0000 C   0  0  0  0  0  0  0  0  0  0  0  0
   -2.8434   -1.8771    0.0000 C   0  0  0  0  0  0  0  0  0  0  0  0
   -2.9866   -1.0646    0.0000 F   0  0  0  0  0  0  0  0  0  0  0  0
   -2.3547   -0.5343    0.0000 C   0  0  0  0  0  0  0  0  0  0  0  0
   -2.4979    0.2782    0.0000 C   0  0  0  0  0  0  0  0  0  0  0  0
   -0.1435    0.8555    0.0000 C   0  0  0  0  0  0  0  0  0  0  0  0
  1  2  1  0  0  0  0
  2  3  1  0  0  0  0
  3  4  4  0  0  0  0
  4  5  4  0  0  0  0
  5  6  4  0  0  0  0
  6  7  4  0  0  0  0
  7  8  4  0  0  0  0
  3  8  4  0  0  0  0
  8  9  1  0  0  0  0
  9 10  1  0  0  0  0
  6 11  1  0  0  0  0
 11 12  2  0  0  0  0
 11 13  1  0  0  0  0
 13 14  1  0  0  0  0
 14 15  1  0  0  0  0
 15 16  1  0  0  0  0
 15 17  1  0  0  0  0
 17 18  1  0  0  0  0
 18 19  1  0  0  0  0
 19 20  1  0  0  0  0
 20 21  1  0  0  0  0
 21 22  4  0  0  0  0
 22 23  4  0  0  0  0
 23 24  4  0  0  0  0
 24 25  4  0  0  0  0
 25 26  4  0  0  0  0
 21 26  4  0  0  0  0
 26 27  1  0  0  0  0
 19 28  1  0  0  0  0
 28 29  1  0  0  0  0
 15 29  1  0  0  0  0
 13 30  1  0  0  0  0
  5 30  1  0  0  0  0
M  END
>  <CdId>
754

>  <Mol Weight>
415.481

>  <Formula>
C24H27F2NO3

>  <Molecule ChEMBL ID>
CHEMBL4859647

>  <Molecule Max Phase>
None

>  <Molecular Weight>
415.48

>  <#RO5 Violations>
0

>  <AlogP>
4.59

>  <Compound Key>
12

>  <Standard Type>
IC50

>  <Standard Relation>
'>'

>  <Standard Value>
30000.0

>  <Standard Units>
nM

$$$$

  Mrv2114 03112311372D          

 34 37  0  0  0  0            999 V2000
    2.0367   -0.4741    0.0000 C   0  0  0  0  0  0  0  0  0  0  0  0
    2.0367   -1.2991    0.0000 C   0  0  0  0  0  0  0  0  0  0  0  0
    1.3693   -1.7840    0.0000 C   0  0  0  0  0  0  0  0  0  0  0  0
    0.5846   -1.5291    0.0000 N   0  0  0  0  0  0  0  0  0  0  0  0
    0.4131   -0.7221    0.0000 C   0  0  0  0  0  0  0  0  0  0  0  0
    1.0262   -0.1701    0.0000 O   0  0  0  0  0  0  0  0  0  0  0  0
   -0.3715   -0.4672    0.0000 C   0  0  0  0  0  0  0  0  0  0  0  0
   -1.0389   -0.9521    0.0000 C   0  0  0  0  0  0  0  0  0  0  0  0
   -1.7064   -0.4672    0.0000 C   0  0  0  0  0  0  0  0  0  0  0  0
   -2.4910   -0.7221    0.0000 C   0  0  0  0  0  0  0  0  0  0  0  0
   -2.7459   -1.5067    0.0000 C   0  0  0  0  0  0  0  0  0  0  0  0
   -3.5709   -1.5067    0.0000 C   0  0  0  0  0  0  0  0  0  0  0  0
   -3.8259   -0.7221    0.0000 C   0  0  0  0  0  0  0  0  0  0  0  0
   -3.1584   -0.2372    0.0000 O   0  0  0  0  0  0  0  0  0  0  0  0
   -1.4514    0.3174    0.0000 O   0  0  0  0  0  0  0  0  0  0  0  0
   -0.6264    0.3174    0.0000 N   0  0  0  0  0  0  0  0  0  0  0  0
    1.6242   -2.5687    0.0000 C   0  0  0  0  0  0  0  0  0  0  0  0
    2.4492   -2.5687    0.0000 N   0  0  0  0  0  0  0  0  0  0  0  0
    2.7041   -1.7840    0.0000 N   0  0  0  0  0  0  0  0  0  0  0  0
    3.4888   -1.5291    0.0000 C   0  0  0  0  0  0  0  0  0  0  0  0
    4.1019   -2.0811    0.0000 C   0  0  0  0  0  0  0  0  0  0  0  0
    4.8865   -1.8262    0.0000 C   0  0  0  0  0  0  0  0  0  0  0  0
    5.4996   -2.3782    0.0000 C   0  0  0  0  0  0  0  0  0  0  0  0
    5.3281   -3.1852    0.0000 C   0  0  0  0  0  0  0  0  0  0  0  0
    5.9411   -3.7372    0.0000 C   0  0  0  0  0  0  0  0  0  0  0  0
    6.5542   -4.2893    0.0000 F   0  0  0  0  0  0  0  0  0  0  0  0
    5.3891   -4.3503    0.0000 F   0  0  0  0  0  0  0  0  0  0  0  0
    6.4932   -3.1241    0.0000 F   0  0  0  0  0  0  0  0  0  0  0  0
    4.5434   -3.4401    0.0000 C   0  0  0  0  0  0  0  0  0  0  0  0
    3.9303   -2.8881    0.0000 C   0  0  0  0  0  0  0  0  0  0  0  0
    3.1457   -3.1430    0.0000 C   0  0  0  0  0  0  0  0  0  0  0  0
    2.3611   -3.3980    0.0000 F   0  0  0  0  0  0  0  0  0  0  0  0
    2.8908   -2.3584    0.0000 F   0  0  0  0  0  0  0  0  0  0  0  0
    3.4007   -3.9277    0.0000 F   0  0  0  0  0  0  0  0  0  0  0  0
  1  2  1  0  0  0  0
  2  3  4  0  0  0  0
  3  4  1  0  0  0  0
  4  5  1  0  0  0  0
  5  6  2  0  0  0  0
  5  7  1  0  0  0  0
  7  8  4  0  0  0  0
  8  9  4  0  0  0  0
  9 10  1  0  0  0  0
 10 11  4  0  0  0  0
 11 12  4  0  0  0  0
 12 13  4  0  0  0  0
 13 14  4  0  0  0  0
 10 14  4  0  0  0  0
  9 15  4  0  0  0  0
 15 16  4  0  0  0  0
  7 16  4  0  0  0  0
  3 17  4  0  0  0  0
 17 18  4  0  0  0  0
 18 19  4  0  0  0  0
  2 19  4  0  0  0  0
 19 20  1  0  0  0  0
 20 21  1  0  0  0  0
 21 22  4  0  0  0  0
 22 23  4  0  0  0  0
 23 24  4  0  0  0  0
 24 25  1  0  0  0  0
 25 26  1  0  0  0  0
 25 27  1  0  0  0  0
 25 28  1  0  0  0  0
 24 29  4  0  0  0  0
 29 30  4  0  0  0  0
 21 30  4  0  0  0  0
 30 31  1  0  0  0  0
 31 32  1  0  0  0  0
 31 33  1  0  0  0  0
 31 34  1  0  0  0  0
M  END
>  <CdId>
755

>  <Mol Weight>
484.358

>  <Formula>
C21H14F6N4O3

>  <Molecule ChEMBL ID>
CHEMBL5087993

>  <Molecule Max Phase>
None

>  <Molecular Weight>
484.36

>  <#RO5 Violations>
1

>  <AlogP>
5.78

>  <Compound Key>
Compound 93

>  <Standard Type>
IC50

>  <Standard Relation>
'>'

>  <Standard Value>
50000.0

>  <Standard Units>
nM

$$$$

  Mrv2114 03112311372D          

 36 40  0  0  1  0            999 V2000
   13.5373    2.7748    0.0000 C   0  0  0  0  0  0  0  0  0  0  0  0
   12.7143    2.7172    0.0000 C   0  0  0  0  0  0  0  0  0  0  0  0
   12.1840    3.3492    0.0000 N   0  0  0  0  0  0  0  0  0  0  0  0
   11.4190    3.0402    0.0000 O   0  0  0  0  0  0  0  0  0  0  0  0
   11.4766    2.2172    0.0000 C   0  0  0  0  0  0  0  0  0  0  0  0
   10.8446    1.6869    0.0000 C   0  0  0  0  0  0  0  0  0  0  0  0
   10.9879    0.8744    0.0000 C   0  0  0  0  0  0  0  0  0  0  0  0
   10.3559    0.3441    0.0000 C   0  0  0  0  0  0  0  0  0  0  0  0
    9.5806    0.6263    0.0000 C   0  0  0  0  0  0  0  0  0  0  0  0
    8.9487    0.0960    0.0000 C   0  0  0  0  0  0  0  0  0  0  0  0
    9.0919   -0.7165    0.0000 C   0  0  0  0  0  0  0  0  0  0  0  0
    8.4599   -1.2468    0.0000 C   0  0  0  0  0  0  0  0  0  0  0  0
    7.6847   -0.9646    0.0000 C   0  0  0  0  0  0  0  0  0  0  0  0
    7.0527   -1.4949    0.0000 C   0  0  0  0  0  0  0  0  0  0  0  0
    6.4207   -0.9646    0.0000 C   0  0  0  0  0  0  0  0  0  0  0  0
    6.5640   -0.1521    0.0000 O   0  0  0  0  0  0  0  0  0  0  0  0
    5.6455   -1.2468    0.0000 O   0  0  0  0  0  0  0  0  0  0  0  0
    7.4652   -2.2094    0.0000 C   0  0  0  0  0  0  0  0  0  0  0  0
    6.6402   -2.2094    0.0000 C   0  0  0  0  0  0  0  0  0  0  0  0
    7.5414   -0.1521    0.0000 C   0  0  0  0  0  0  0  0  0  0  0  0
    8.1734    0.3782    0.0000 C   0  0  0  0  0  0  0  0  0  0  0  0
    9.4374    1.4388    0.0000 C   0  0  0  0  0  0  0  0  0  0  0  0
   10.0694    1.9691    0.0000 C   0  0  0  0  0  0  0  0  0  0  0  0
   12.2771    2.0176    0.0000 C   0  0  0  0  0  0  0  0  0  0  0  0
   12.5861    1.2527    0.0000 N   0  0  0  0  0  0  0  0  0  0  0  0
   13.4031    1.1379    0.0000 C   0  0  0  0  0  0  0  0  0  0  0  0
   13.9110    1.7880    0.0000 O   0  0  0  0  0  0  0  0  0  0  0  0
   13.7122    0.3729    0.0000 O   0  0  0  0  0  0  0  0  0  0  0  0
   13.2042   -0.2772    0.0000 C   0  0  2  0  0  0  0  0  0  0  0  0
   12.3873   -0.1624    0.0000 C   0  0  0  0  0  0  0  0  0  0  0  0
   13.5133   -1.0421    0.0000 C   0  0  0  0  0  0  0  0  0  0  0  0
   14.3303   -1.1569    0.0000 C   0  0  0  0  0  0  0  0  0  0  0  0
   14.6393   -1.9218    0.0000 C   0  0  0  0  0  0  0  0  0  0  0  0
   14.1314   -2.5720    0.0000 C   0  0  0  0  0  0  0  0  0  0  0  0
   13.3144   -2.4571    0.0000 C   0  0  0  0  0  0  0  0  0  0  0  0
   13.0054   -1.6922    0.0000 C   0  0  0  0  0  0  0  0  0  0  0  0
  1  2  1  0  0  0  0
  2  3  4  0  0  0  0
  3  4  4  0  0  0  0
  4  5  4  0  0  0  0
  5  6  1  0  0  0  0
  6  7  4  0  0  0  0
  7  8  4  0  0  0  0
  8  9  4  0  0  0  0
  9 10  1  0  0  0  0
 10 11  4  0  0  0  0
 11 12  4  0  0  0  0
 12 13  4  0  0  0  0
 13 14  1  0  0  0  0
 14 15  1  0  0  0  0
 15 16  2  0  0  0  0
 15 17  1  0  0  0  0
 14 18  1  0  0  0  0
 18 19  1  0  0  0  0
 14 19  1  0  0  0  0
 13 20  4  0  0  0  0
 20 21  4  0  0  0  0
 10 21  4  0  0  0  0
  9 22  4  0  0  0  0
 22 23  4  0  0  0  0
  6 23  4  0  0  0  0
  5 24  4  0  0  0  0
  2 24  4  0  0  0  0
 24 25  1  0  0  0  0
 25 26  1  0  0  0  0
 26 27  2  0  0  0  0
 26 28  1  0  0  0  0
 29 28  1  0  0  0  0
 29 30  1  1  0  0  0
 29 31  1  0  0  0  0
 31 32  4  0  0  0  0
 32 33  4  0  0  0  0
 33 34  4  0  0  0  0
 34 35  4  0  0  0  0
 35 36  4  0  0  0  0
 31 36  4  0  0  0  0
M  END
>  <CdId>
756

>  <Mol Weight>
482.536

>  <Formula>
C29H26N2O5

>  <Molecule ChEMBL ID>
CHEMBL4297270

>  <Molecule Name>
BMS-986020

>  <Molecule Max Phase>
2

>  <Molecular Weight>
482.54

>  <#RO5 Violations>
1

>  <AlogP>
6.74

>  <Compound Key>
1; BMS-98602

>  <Standard Type>
IC50

>  <Standard Relation>
'='

>  <Standard Value>
3500.0

>  <Standard Units>
nM

$$$$

  Mrv2114 03112311372D          

 26 29  0  0  0  0            999 V2000
    5.1156   -3.2652    0.0000 C   0  0  0  0  0  0  0  0  0  0  0  0
    4.4011   -3.6777    0.0000 C   0  0  0  0  0  0  0  0  0  0  0  0
    4.4011   -4.5027    0.0000 C   0  0  0  0  0  0  0  0  0  0  0  0
    3.6866   -4.9152    0.0000 C   0  0  0  0  0  0  0  0  0  0  0  0
    3.6866   -5.7402    0.0000 N   0  0  0  0  0  0  0  0  0  0  0  0
    4.4011   -6.1527    0.0000 C   0  0  0  0  0  0  0  0  0  0  0  0
    5.1548   -5.8172    0.0000 C   0  0  0  0  0  0  0  0  0  0  0  0
    5.7068   -6.4303    0.0000 C   0  0  0  0  0  0  0  0  0  0  0  0
    6.5318   -6.4303    0.0000 C   0  0  0  0  0  0  0  0  0  0  0  0
    6.9443   -7.1447    0.0000 C   0  0  0  0  0  0  0  0  0  0  0  0
    7.7693   -7.1447    0.0000 F   0  0  0  0  0  0  0  0  0  0  0  0
    6.5318   -7.8592    0.0000 C   0  0  0  0  0  0  0  0  0  0  0  0
    6.9443   -8.5737    0.0000 F   0  0  0  0  0  0  0  0  0  0  0  0
    5.7068   -7.8592    0.0000 C   0  0  0  0  0  0  0  0  0  0  0  0
    5.2943   -7.1447    0.0000 C   0  0  0  0  0  0  0  0  0  0  0  0
    4.4874   -6.9732    0.0000 C   0  0  0  0  0  0  0  0  0  0  0  0
    2.9722   -4.5027    0.0000 N   0  0  0  0  0  0  0  0  0  0  0  0
    2.1876   -4.7577    0.0000 N   0  0  0  0  0  0  0  0  0  0  0  0
    1.7026   -4.0902    0.0000 C   0  0  0  0  0  0  0  0  0  0  0  0
    0.8776   -4.0902    0.0000 C   0  0  0  0  0  0  0  0  0  0  0  0
    0.0526   -4.0902    0.0000 C   0  0  0  0  0  0  0  0  0  0  0  0
    0.8776   -3.2652    0.0000 F   0  0  0  0  0  0  0  0  0  0  0  0
    0.8776   -4.9152    0.0000 F   0  0  0  0  0  0  0  0  0  0  0  0
    2.1876   -3.4228    0.0000 N   0  0  0  0  0  0  0  0  0  0  0  0
    2.9722   -3.6777    0.0000 C   0  0  0  0  0  0  0  0  0  0  0  0
    3.6866   -3.2652    0.0000 N   0  0  0  0  0  0  0  0  0  0  0  0
  1  2  1  0  0  0  0
  2  3  4  0  0  0  0
  3  4  4  0  0  0  0
  4  5  1  0  0  0  0
  5  6  1  0  0  0  0
  6  7  1  0  0  0  0
  7  8  1  0  0  0  0
  8  9  4  0  0  0  0
  9 10  4  0  0  0  0
 10 11  1  0  0  0  0
 10 12  4  0  0  0  0
 12 13  1  0  0  0  0
 12 14  4  0  0  0  0
 14 15  4  0  0  0  0
  8 15  4  0  0  0  0
 15 16  1  0  0  0  0
  6 16  1  0  0  0  0
  4 17  4  0  0  0  0
 17 18  4  0  0  0  0
 18 19  4  0  0  0  0
 19 20  1  0  0  0  0
 20 21  1  0  0  0  0
 20 22  1  0  0  0  0
 20 23  1  0  0  0  0
 19 24  4  0  0  0  0
 24 25  4  0  0  0  0
 17 25  4  0  0  0  0
 25 26  4  0  0  0  0
  2 26  4  0  0  0  0
M  END
>  <CdId>
757

>  <Mol Weight>
365.336

>  <Formula>
C17H15F4N5

>  <Molecule ChEMBL ID>
CHEMBL4794107

>  <Molecule Max Phase>
None

>  <Molecular Weight>
365.33

>  <#RO5 Violations>
0

>  <AlogP>
3.4

>  <Compound Key>
35; DSM411

>  <Standard Type>
IC50

$$$$

  Mrv2114 03112311372D          

 15 16  0  0  0  0            999 V2000
    2.1434   -1.2375    0.0000 O   0  0  0  0  0  0  0  0  0  0  0  0
    1.4289   -1.6500    0.0000 C   0  0  0  0  0  0  0  0  0  0  0  0
    0.7145   -1.2375    0.0000 N   0  0  0  0  0  0  0  0  0  0  0  0
    0.7145   -0.4125    0.0000 C   0  0  0  0  0  0  0  0  0  0  0  0
    0.0000    0.0000    0.0000 C   0  0  0  0  0  0  0  0  0  0  0  0
    0.0000    0.8250    0.0000 C   0  0  0  0  0  0  0  0  0  0  0  0
    0.7145    1.2375    0.0000 C   0  0  0  0  0  0  0  0  0  0  0  0
    0.7145    2.0625    0.0000 F   0  0  0  0  0  0  0  0  0  0  0  0
    1.4289    0.8250    0.0000 C   0  0  0  0  0  0  0  0  0  0  0  0
    1.4289    0.0000    0.0000 N   0  0  0  0  0  0  0  0  0  0  0  0
    1.4289   -2.4750    0.0000 C   0  0  0  0  0  0  0  0  0  0  0  0
    2.0964   -2.9599    0.0000 C   0  0  0  0  0  0  0  0  0  0  0  0
    1.8414   -3.7445    0.0000 C   0  0  0  0  0  0  0  0  0  0  0  0
    1.0164   -3.7445    0.0000 N   0  0  0  0  0  0  0  0  0  0  0  0
    0.7615   -2.9599    0.0000 N   0  0  0  0  0  0  0  0  0  0  0  0
  1  2  2  0  0  0  0
  2  3  1  0  0  0  0
  3  4  1  0  0  0  0
  4  5  4  0  0  0  0
  5  6  4  0  0  0  0
  6  7  4  0  0  0  0
  7  8  1  0  0  0  0
  7  9  4  0  0  0  0
  9 10  4  0  0  0  0
  4 10  4  0  0  0  0
  2 11  1  0  0  0  0
 11 12  4  0  0  0  0
 12 13  4  0  0  0  0
 13 14  4  0  0  0  0
 14 15  4  0  0  0  0
 11 15  4  0  0  0  0
M  STY  1   1 DAT
M  SAL   1  1  14
M  SDT   1 MRV_IMPLICIT_H                                        
M  SDD   1     0.0000    0.0000    DR    ALL  0       0  
M  SED   1 IMPL_H1
M  END
>  <CdId>
758

>  <Mol Weight>
206.18

>  <Formula>
C9H7FN4O

>  <Molecule ChEMBL ID>
CHEMBL3604137

>  <Molecule Max Phase>
None

>  <Molecular Weight>
206.18

>  <#RO5 Violations>
0

>  <AlogP>
1.2

>  <Compound Key>
3d, BLX-2481

>  <Standard Type>
IC50

$$$$

  Mrv2114 03112311372D          

 40 43  0  0  0  0            999 V2000
    8.5219   12.2956    0.0000 C   0  0  0  0  0  0  0  0  0  0  0  0
    7.7014   12.2094    0.0000 C   0  0  0  0  0  0  0  0  0  0  0  0
    7.3658   11.4557    0.0000 O   0  0  0  0  0  0  0  0  0  0  0  0
    6.5453   11.3695    0.0000 P   0  0  0  0  0  0  0  0  0  0  0  0
    6.4591   12.1899    0.0000 O   0  0  0  0  0  0  0  0  0  0  0  0
    5.7249   11.2832    0.0000 C   0  0  0  0  0  0  0  0  0  0  0  0
    5.3893   10.5296    0.0000 N   0  0  0  0  0  0  0  0  0  0  0  0
    5.8018    9.8151    0.0000 C   0  0  0  0  0  0  0  0  0  0  0  0
    5.2498    9.2020    0.0000 C   0  0  0  0  0  0  0  0  0  0  0  0
    4.4961    9.5375    0.0000 C   0  0  0  0  0  0  0  0  0  0  0  0
    3.7816    9.1250    0.0000 N   0  0  0  0  0  0  0  0  0  0  0  0
    3.7816    8.3000    0.0000 C   0  0  0  0  0  0  0  0  0  0  0  0
    4.4961    7.8875    0.0000 O   0  0  0  0  0  0  0  0  0  0  0  0
    3.0671    7.8875    0.0000 C   0  0  0  0  0  0  0  0  0  0  0  0
    3.0671    7.0625    0.0000 C   0  0  0  0  0  0  0  0  0  0  0  0
    2.3527    6.6500    0.0000 C   0  0  0  0  0  0  0  0  0  0  0  0
    2.3527    5.8250    0.0000 O   0  0  0  0  0  0  0  0  0  0  0  0
    1.6382    5.4125    0.0000 C   0  0  0  0  0  0  0  0  0  0  0  0
    1.6382    4.5875    0.0000 C   0  0  0  0  0  0  0  0  0  0  0  0
    0.9237    4.1750    0.0000 N   0  0  0  0  0  0  0  0  0  0  0  0
    0.2093    4.5875    0.0000 C   0  0  0  0  0  0  0  0  0  0  0  0
   -0.5052    4.1750    0.0000 C   0  0  0  0  0  0  0  0  0  0  0  0
   -1.2197    4.5875    0.0000 O   0  0  0  0  0  0  0  0  0  0  0  0
   -0.5052    3.3500    0.0000 N   0  0  0  0  0  0  0  0  0  0  0  0
    0.0782    2.7667    0.0000 C   0  0  0  0  0  0  0  0  0  0  0  0
   -0.5052    2.1833    0.0000 C   0  0  0  0  0  0  0  0  0  0  0  0
   -1.0886    2.7667    0.0000 C   0  0  0  0  0  0  0  0  0  0  0  0
    0.2093    5.4125    0.0000 C   0  0  0  0  0  0  0  0  0  0  0  0
    0.9237    5.8250    0.0000 N   0  0  0  0  0  0  0  0  0  0  0  0
    1.6382    7.0625    0.0000 C   0  0  0  0  0  0  0  0  0  0  0  0
    1.6382    7.8875    0.0000 C   0  0  0  0  0  0  0  0  0  0  0  0
    0.9237    8.3000    0.0000 O   0  0  0  0  0  0  0  0  0  0  0  0
    0.2093    7.8875    0.0000 C   0  0  0  0  0  0  0  0  0  0  0  0
    0.2093    7.0625    0.0000 C   0  0  0  0  0  0  0  0  0  0  0  0
   -0.5052    8.3000    0.0000 C   0  0  0  0  0  0  0  0  0  0  0  0
    2.3527    8.3000    0.0000 C   0  0  0  0  0  0  0  0  0  0  0  0
    4.5823   10.3580    0.0000 N   0  0  0  0  0  0  0  0  0  0  0  0
    6.6316   10.5490    0.0000 O   0  0  0  0  0  0  0  0  0  0  0  0
    7.3852   10.2134    0.0000 C   0  0  0  0  0  0  0  0  0  0  0  0
    7.4715    9.3929    0.0000 C   0  0  0  0  0  0  0  0  0  0  0  0
  1  2  1  0  0  0  0
  2  3  1  0  0  0  0
  3  4  1  0  0  0  0
  4  5  2  0  0  0  0
  4  6  1  0  0  0  0
  6  7  1  0  0  0  0
  7  8  4  0  0  0  0
  8  9  4  0  0  0  0
  9 10  4  0  0  0  0
 10 11  1  0  0  0  0
 11 12  1  0  0  0  0
 12 13  2  0  0  0  0
 12 14  1  0  0  0  0
 14 15  4  0  0  0  0
 15 16  4  0  0  0  0
 16 17  1  0  0  0  0
 17 18  1  0  0  0  0
 18 19  4  0  0  0  0
 19 20  4  0  0  0  0
 20 21  4  0  0  0  0
 21 22  1  0  0  0  0
 22 23  2  0  0  0  0
 22 24  1  0  0  0  0
 24 25  1  0  0  0  0
 25 26  1  0  0  0  0
 26 27  1  0  0  0  0
 24 27  1  0  0  0  0
 21 28  4  0  0  0  0
 28 29  4  0  0  0  0
 18 29  4  0  0  0  0
 16 30  4  0  0  0  0
 30 31  4  0  0  0  0
 31 32  1  0  0  0  0
 32 33  1  0  0  0  0
 33 34  1  0  0  0  0
 33 35  1  0  0  0  0
 31 36  4  0  0  0  0
 14 36  4  0  0  0  0
 10 37  4  0  0  0  0
  7 37  4  0  0  0  0
  4 38  1  0  0  0  0
 38 39  1  0  0  0  0
 39 40  1  0  0  0  0
M  END
>  <CdId>
759

>  <Mol Weight>
572.559

>  <Formula>
C26H33N6O7P

>  <Molecule ChEMBL ID>
CHEMBL5072532

>  <Molecule Max Phase>
None

>  <Molecular Weight>
572.56

>  <#RO5 Violations>
2

>  <AlogP>
4.57

>  <Compound Key>
31

>  <Standard Type>
IC50

>  <Standard Relation>
'='

>  <Standard Value>
7700.0

>  <Standard Units>
nM

$$$$

  Mrv2114 03112311372D          

 52 57  0  0  1  0            999 V2000
   -2.2133   -2.3931    0.0000 C   0  0  0  0  0  0  0  0  0  0  0  0
   -1.4063   -2.2216    0.0000 O   0  0  0  0  0  0  0  0  0  0  0  0
   -1.1514   -1.4370    0.0000 C   0  0  0  0  0  0  0  0  0  0  0  0
   -1.7034   -0.8239    0.0000 C   0  0  0  0  0  0  0  0  0  0  0  0
   -1.4485   -0.0392    0.0000 C   0  0  0  0  0  0  0  0  0  0  0  0
   -0.6415    0.1323    0.0000 C   0  0  0  0  0  0  0  0  0  0  0  0
   -0.3866    0.9169    0.0000 C   0  0  0  0  0  0  0  0  0  0  0  0
   -0.9386    1.5300    0.0000 C   0  0  0  0  0  0  0  0  0  0  0  0
   -1.7456    1.3585    0.0000 C   0  0  0  0  0  0  0  0  0  0  0  0
   -0.6836    2.3146    0.0000 C   0  0  0  0  0  0  0  0  0  0  0  0
    0.1233    2.4861    0.0000 C   0  0  0  0  0  0  0  0  0  0  0  0
    0.3783    3.2708    0.0000 C   0  0  0  0  0  0  0  0  0  0  0  0
    1.1852    3.4423    0.0000 O   0  0  0  0  0  0  0  0  0  0  0  0
   -0.1738    3.8839    0.0000 O   0  0  0  0  0  0  0  0  0  0  0  0
    0.6754    1.8731    0.0000 C   0  0  0  0  0  0  0  0  0  0  0  0
    0.4204    1.0884    0.0000 C   0  0  0  0  0  0  0  0  0  0  0  0
    0.9725    0.4753    0.0000 C   0  0  0  0  0  0  0  0  0  0  0  0
   -0.0895   -0.4808    0.0000 C   0  0  0  0  0  0  0  0  0  0  0  0
   -0.3444   -1.2654    0.0000 C   0  0  0  0  0  0  0  0  0  0  0  0
    0.2076   -1.8785    0.0000 C   0  0  0  0  0  0  0  0  0  0  0  0
   -0.0473   -2.6631    0.0000 N   0  0  0  0  0  0  0  0  0  0  0  0
    0.5047   -3.2762    0.0000 C   0  0  0  0  0  0  0  0  0  0  0  0
    1.3117   -3.1047    0.0000 C   0  0  0  0  0  0  0  0  0  0  0  0
    1.8637   -3.7178    0.0000 C   0  0  0  0  0  0  0  0  0  0  0  0
    2.4158   -4.3309    0.0000 F   0  0  0  0  0  0  0  0  0  0  0  0
    1.2506   -4.2698    0.0000 F   0  0  0  0  0  0  0  0  0  0  0  0
    2.4768   -3.1658    0.0000 F   0  0  0  0  0  0  0  0  0  0  0  0
    1.5666   -2.3201    0.0000 C   0  0  0  0  0  0  0  0  0  0  0  0
    1.0146   -1.7070    0.0000 C   0  0  0  0  0  0  0  0  0  0  0  0
    1.2695   -0.9224    0.0000 C   0  0  2  0  0  0  0  0  0  0  0  0
    0.7846   -0.2549    0.0000 C   0  0  0  0  0  0  0  0  0  0  0  0
    1.2695    0.4125    0.0000 C   0  0  0  0  0  0  0  0  0  0  0  0
    2.0542    0.1576    0.0000 C   0  0  1  0  0  0  0  0  0  0  0  0
    2.8388    0.4125    0.0000 C   0  0  1  0  0  0  0  0  0  0  0  0
    3.0937    1.1971    0.0000 C   0  0  0  0  0  0  0  0  0  0  0  0
    2.5417    1.8102    0.0000 C   0  0  0  0  0  0  0  0  0  0  0  0
    2.7966    2.5948    0.0000 C   0  0  0  0  0  0  0  0  0  0  0  0
    2.2446    3.2079    0.0000 C   0  0  0  0  0  0  0  0  0  0  0  0
    1.6926    3.8210    0.0000 F   0  0  0  0  0  0  0  0  0  0  0  0
    2.8577    3.7600    0.0000 F   0  0  0  0  0  0  0  0  0  0  0  0
    1.6315    2.6559    0.0000 F   0  0  0  0  0  0  0  0  0  0  0  0
    3.6036    2.7664    0.0000 C   0  0  0  0  0  0  0  0  0  0  0  0
    4.1556    2.1533    0.0000 C   0  0  0  0  0  0  0  0  0  0  0  0
    4.9626    2.3248    0.0000 C   0  0  0  0  0  0  0  0  0  0  0  0
    5.7696    2.4963    0.0000 F   0  0  0  0  0  0  0  0  0  0  0  0
    5.1341    1.5178    0.0000 F   0  0  0  0  0  0  0  0  0  0  0  0
    4.7911    3.1318    0.0000 F   0  0  0  0  0  0  0  0  0  0  0  0
    3.9007    1.3686    0.0000 C   0  0  0  0  0  0  0  0  0  0  0  0
    3.3237   -0.2549    0.0000 O   0  0  0  0  0  0  0  0  0  0  0  0
    2.8388   -0.9224    0.0000 C   0  0  0  0  0  0  0  0  0  0  0  0
    3.0937   -1.7070    0.0000 O   0  0  0  0  0  0  0  0  0  0  0  0
    2.0542   -0.6674    0.0000 N   0  0  0  0  0  0  0  0  0  0  0  0
  1  2  1  0  0  0  0
  2  3  1  0  0  0  0
  3  4  4  0  0  0  0
  4  5  4  0  0  0  0
  5  6  4  0  0  0  0
  6  7  1  0  0  0  0
  7  8  4  0  0  0  0
  8  9  1  0  0  0  0
  8 10  4  0  0  0  0
 10 11  4  0  0  0  0
 11 12  1  0  0  0  0
 12 13  2  0  0  0  0
 12 14  1  0  0  0  0
 11 15  4  0  0  0  0
 15 16  4  0  0  0  0
  7 16  4  0  0  0  0
 16 17  1  0  0  0  0
  6 18  4  0  0  0  0
 18 19  4  0  0  0  0
  3 19  4  0  0  0  0
 19 20  1  0  0  0  0
 20 21  4  0  0  0  0
 21 22  4  0  0  0  0
 22 23  4  0  0  0  0
 23 24  1  0  0  0  0
 24 25  1  0  0  0  0
 24 26  1  0  0  0  0
 24 27  1  0  0  0  0
 23 28  4  0  0  0  0
 28 29  4  0  0  0  0
 20 29  4  0  0  0  0
 30 29  1  6  0  0  0
 30 31  1  0  0  0  0
 31 32  1  0  0  0  0
 33 32  1  0  0  0  0
 33 34  1  0  0  0  0
 34 35  1  1  0  0  0
 35 36  4  0  0  0  0
 36 37  4  0  0  0  0
 37 38  1  0  0  0  0
 38 39  1  0  0  0  0
 38 40  1  0  0  0  0
 38 41  1  0  0  0  0
 37 42  4  0  0  0  0
 42 43  4  0  0  0  0
 43 44  1  0  0  0  0
 44 45  1  0  0  0  0
 44 46  1  0  0  0  0
 44 47  1  0  0  0  0
 43 48  4  0  0  0  0
 35 48  4  0  0  0  0
 34 49  1  0  0  0  0
 49 50  1  0  0  0  0
 50 51  2  0  0  0  0
 50 52  1  0  0  0  0
 30 52  1  0  0  0  0
 33 52  1  1  0  0  0
M  END
>  <CdId>
760

>  <Mol Weight>
738.607

>  <Formula>
C36H27F9N2O5

>  <Molecule ChEMBL ID>
CHEMBL3657535

>  <Molecule Max Phase>
None

>  <Molecular Weight>
738.6

>  <#RO5 Violations>
2

>  <AlogP>
10.19

>  <Compound Key>
82

>  <Standard Type>
IC50

>  <Standard Relation>
'='

>  <Standard Value>
11000.0

>  <Standard Units>
nM

$$$$

  Mrv2114 03112311372D          

 33 37  0  0  1  0            999 V2000
   -2.6363  -12.1409    0.0000 O   0  0  0  0  0  0  0  0  0  0  0  0
   -2.3813  -11.3562    0.0000 C   0  0  0  0  0  0  0  0  0  0  0  0
   -2.9333  -10.7431    0.0000 O   0  0  0  0  0  0  0  0  0  0  0  0
   -1.5743  -11.1847    0.0000 C   0  0  0  0  0  0  0  0  0  0  0  0
   -1.3194  -10.4001    0.0000 C   0  0  2  0  0  0  0  0  0  0  0  0
   -1.8043   -9.7326    0.0000 C   0  0  0  0  0  0  0  0  0  0  0  0
   -1.3194   -9.0652    0.0000 C   0  0  0  0  0  0  0  0  0  0  0  0
   -0.5348   -9.3201    0.0000 C   0  0  0  0  0  0  0  0  0  0  0  0
    0.1797   -8.9076    0.0000 C   0  0  0  0  0  0  0  0  0  0  0  0
    0.8942   -9.3201    0.0000 C   0  0  0  0  0  0  0  0  0  0  0  0
    1.6086   -8.9076    0.0000 O   0  0  0  0  0  0  0  0  0  0  0  0
    2.3231   -9.3201    0.0000 C   0  0  0  0  0  0  0  0  0  0  0  0
    3.0376   -8.9076    0.0000 C   0  0  0  0  0  0  0  0  0  0  0  0
    3.7520   -9.3201    0.0000 C   0  0  0  0  0  0  0  0  0  0  0  0
    4.4665   -8.9076    0.0000 O   0  0  0  0  0  0  0  0  0  0  0  0
    5.1810   -9.3201    0.0000 C   0  0  0  0  0  0  0  0  0  0  0  0
    5.8955   -8.9076    0.0000 C   0  0  0  0  0  0  0  0  0  0  0  0
    6.6099   -9.3201    0.0000 C   0  0  0  0  0  0  0  0  0  0  0  0
    6.6099  -10.1451    0.0000 C   0  0  0  0  0  0  0  0  0  0  0  0
    7.3244  -10.5576    0.0000 C   0  0  0  0  0  0  0  0  0  0  0  0
    7.4106  -11.3781    0.0000 N   0  0  0  0  0  0  0  0  0  0  0  0
    8.2176  -11.5497    0.0000 C   0  0  0  0  0  0  0  0  0  0  0  0
    8.6301  -10.8352    0.0000 C   0  0  0  0  0  0  0  0  0  0  0  0
    8.0781  -10.2221    0.0000 S   0  0  0  0  0  0  0  0  0  0  0  0
    9.4551  -10.8352    0.0000 C   0  0  0  0  0  0  0  0  0  0  0  0
    9.8676  -11.5497    0.0000 C   0  0  0  0  0  0  0  0  0  0  0  0
    9.4551  -12.2641    0.0000 C   0  0  0  0  0  0  0  0  0  0  0  0
    8.6301  -12.2641    0.0000 C   0  0  0  0  0  0  0  0  0  0  0  0
    5.8955  -10.5576    0.0000 C   0  0  0  0  0  0  0  0  0  0  0  0
    5.1810  -10.1451    0.0000 C   0  0  0  0  0  0  0  0  0  0  0  0
    0.8942  -10.1451    0.0000 C   0  0  0  0  0  0  0  0  0  0  0  0
    0.1797  -10.5576    0.0000 C   0  0  0  0  0  0  0  0  0  0  0  0
   -0.5348  -10.1451    0.0000 C   0  0  0  0  0  0  0  0  0  0  0  0
  1  2  2  0  0  0  0
  2  3  1  0  0  0  0
  2  4  1  0  0  0  0
  5  4  1  6  0  0  0
  5  6  1  0  0  0  0
  6  7  1  0  0  0  0
  7  8  1  0  0  0  0
  8  9  4  0  0  0  0
  9 10  4  0  0  0  0
 10 11  1  0  0  0  0
 11 12  1  0  0  0  0
 12 13  1  0  0  0  0
 13 14  1  0  0  0  0
 14 15  1  0  0  0  0
 15 16  1  0  0  0  0
 16 17  4  0  0  0  0
 17 18  4  0  0  0  0
 18 19  4  0  0  0  0
 19 20  1  0  0  0  0
 20 21  4  0  0  0  0
 21 22  4  0  0  0  0
 22 23  4  0  0  0  0
 23 24  4  0  0  0  0
 20 24  4  0  0  0  0
 23 25  1  0  0  0  0
 25 26  1  0  0  0  0
 26 27  1  0  0  0  0
 27 28  1  0  0  0  0
 22 28  1  0  0  0  0
 19 29  4  0  0  0  0
 29 30  4  0  0  0  0
 16 30  4  0  0  0  0
 10 31  4  0  0  0  0
 31 32  4  0  0  0  0
 32 33  4  0  0  0  0
  8 33  4  0  0  0  0
  5 33  1  0  0  0  0
M  END
>  <CdId>
761

>  <Mol Weight>
463.59

>  <Formula>
C27H29NO4S

>  <Molecule ChEMBL ID>
CHEMBL375812

>  <Molecule Max Phase>
None

>  <Molecular Weight>
463.6

>  <#RO5 Violations>
1

>  <AlogP>
6.04

>  <Compound Key>
34o

>  <Standard Type>
IC50

>  <Standard Relation>
'>'

>  <Standard Value>
10000.0

>  <Standard Units>
nM

$$$$

  Mrv2114 03112311372D          

 51 56  0  0  1  0            999 V2000
   -0.8543   -2.8347    0.0000 C   0  0  0  0  0  0  0  0  0  0  0  0
   -1.4063   -2.2216    0.0000 O   0  0  0  0  0  0  0  0  0  0  0  0
   -1.1514   -1.4370    0.0000 C   0  0  0  0  0  0  0  0  0  0  0  0
   -1.7034   -0.8239    0.0000 N   0  0  0  0  0  0  0  0  0  0  0  0
   -1.4485   -0.0392    0.0000 C   0  0  0  0  0  0  0  0  0  0  0  0
   -0.6415    0.1323    0.0000 C   0  0  0  0  0  0  0  0  0  0  0  0
   -0.3866    0.9169    0.0000 C   0  0  0  0  0  0  0  0  0  0  0  0
    0.4204    1.0884    0.0000 C   0  0  0  0  0  0  0  0  0  0  0  0
    0.6754    1.8731    0.0000 C   0  0  0  0  0  0  0  0  0  0  0  0
    0.1233    2.4861    0.0000 C   0  0  0  0  0  0  0  0  0  0  0  0
    0.3783    3.2708    0.0000 C   0  0  0  0  0  0  0  0  0  0  0  0
    1.1852    3.4423    0.0000 O   0  0  0  0  0  0  0  0  0  0  0  0
   -0.1738    3.8839    0.0000 O   0  0  0  0  0  0  0  0  0  0  0  0
   -0.6836    2.3146    0.0000 C   0  0  0  0  0  0  0  0  0  0  0  0
   -0.9386    1.5300    0.0000 C   0  0  0  0  0  0  0  0  0  0  0  0
   -1.7456    1.3585    0.0000 C   0  0  0  0  0  0  0  0  0  0  0  0
   -0.0895   -0.4808    0.0000 C   0  0  0  0  0  0  0  0  0  0  0  0
   -0.3444   -1.2654    0.0000 C   0  0  0  0  0  0  0  0  0  0  0  0
    0.2076   -1.8785    0.0000 C   0  0  0  0  0  0  0  0  0  0  0  0
   -0.0473   -2.6631    0.0000 N   0  0  0  0  0  0  0  0  0  0  0  0
    0.5047   -3.2762    0.0000 C   0  0  0  0  0  0  0  0  0  0  0  0
    1.3117   -3.1047    0.0000 C   0  0  0  0  0  0  0  0  0  0  0  0
    1.8637   -3.7178    0.0000 C   0  0  0  0  0  0  0  0  0  0  0  0
    2.4158   -4.3309    0.0000 F   0  0  0  0  0  0  0  0  0  0  0  0
    1.2506   -4.2698    0.0000 F   0  0  0  0  0  0  0  0  0  0  0  0
    2.4768   -3.1658    0.0000 F   0  0  0  0  0  0  0  0  0  0  0  0
    1.5666   -2.3201    0.0000 C   0  0  0  0  0  0  0  0  0  0  0  0
    1.0146   -1.7070    0.0000 C   0  0  0  0  0  0  0  0  0  0  0  0
    1.2695   -0.9224    0.0000 C   0  0  2  0  0  0  0  0  0  0  0  0
    0.7846   -0.2549    0.0000 C   0  0  0  0  0  0  0  0  0  0  0  0
    1.2695    0.4125    0.0000 C   0  0  0  0  0  0  0  0  0  0  0  0
    2.0542    0.1576    0.0000 C   0  0  1  0  0  0  0  0  0  0  0  0
    2.8388    0.4125    0.0000 C   0  0  1  0  0  0  0  0  0  0  0  0
    3.0937    1.1971    0.0000 C   0  0  0  0  0  0  0  0  0  0  0  0
    2.5417    1.8102    0.0000 C   0  0  0  0  0  0  0  0  0  0  0  0
    2.7966    2.5948    0.0000 C   0  0  0  0  0  0  0  0  0  0  0  0
    2.2446    3.2079    0.0000 C   0  0  0  0  0  0  0  0  0  0  0  0
    1.6926    3.8210    0.0000 F   0  0  0  0  0  0  0  0  0  0  0  0
    2.8577    3.7600    0.0000 F   0  0  0  0  0  0  0  0  0  0  0  0
    1.6315    2.6559    0.0000 F   0  0  0  0  0  0  0  0  0  0  0  0
    3.6036    2.7664    0.0000 C   0  0  0  0  0  0  0  0  0  0  0  0
    4.1556    2.1533    0.0000 C   0  0  0  0  0  0  0  0  0  0  0  0
    4.9626    2.3248    0.0000 C   0  0  0  0  0  0  0  0  0  0  0  0
    5.7696    2.4963    0.0000 F   0  0  0  0  0  0  0  0  0  0  0  0
    5.1341    1.5178    0.0000 F   0  0  0  0  0  0  0  0  0  0  0  0
    4.7911    3.1318    0.0000 F   0  0  0  0  0  0  0  0  0  0  0  0
    3.9007    1.3686    0.0000 C   0  0  0  0  0  0  0  0  0  0  0  0
    3.3237   -0.2549    0.0000 O   0  0  0  0  0  0  0  0  0  0  0  0
    2.8388   -0.9224    0.0000 C   0  0  0  0  0  0  0  0  0  0  0  0
    3.0937   -1.7070    0.0000 O   0  0  0  0  0  0  0  0  0  0  0  0
    2.0542   -0.6674    0.0000 N   0  0  0  0  0  0  0  0  0  0  0  0
  1  2  1  0  0  0  0
  2  3  1  0  0  0  0
  3  4  4  0  0  0  0
  4  5  4  0  0  0  0
  5  6  4  0  0  0  0
  6  7  1  0  0  0  0
  7  8  4  0  0  0  0
  8  9  4  0  0  0  0
  9 10  4  0  0  0  0
 10 11  1  0  0  0  0
 11 12  2  0  0  0  0
 11 13  1  0  0  0  0
 10 14  4  0  0  0  0
 14 15  4  0  0  0  0
  7 15  4  0  0  0  0
 15 16  1  0  0  0  0
  6 17  4  0  0  0  0
 17 18  4  0  0  0  0
  3 18  4  0  0  0  0
 18 19  1  0  0  0  0
 19 20  4  0  0  0  0
 20 21  4  0  0  0  0
 21 22  4  0  0  0  0
 22 23  1  0  0  0  0
 23 24  1  0  0  0  0
 23 25  1  0  0  0  0
 23 26  1  0  0  0  0
 22 27  4  0  0  0  0
 27 28  4  0  0  0  0
 19 28  4  0  0  0  0
 29 28  1  6  0  0  0
 29 30  1  0  0  0  0
 30 31  1  0  0  0  0
 32 31  1  0  0  0  0
 32 33  1  0  0  0  0
 33 34  1  1  0  0  0
 34 35  4  0  0  0  0
 35 36  4  0  0  0  0
 36 37  1  0  0  0  0
 37 38  1  0  0  0  0
 37 39  1  0  0  0  0
 37 40  1  0  0  0  0
 36 41  4  0  0  0  0
 41 42  4  0  0  0  0
 42 43  1  0  0  0  0
 43 44  1  0  0  0  0
 43 45  1  0  0  0  0
 43 46  1  0  0  0  0
 42 47  4  0  0  0  0
 34 47  4  0  0  0  0
 33 48  1  0  0  0  0
 48 49  1  0  0  0  0
 49 50  2  0  0  0  0
 49 51  1  0  0  0  0
 29 51  1  0  0  0  0
 32 51  1  1  0  0  0
M  END
>  <CdId>
762

>  <Mol Weight>
725.568

>  <Formula>
C34H24F9N3O5

>  <Molecule ChEMBL ID>
CHEMBL3657536

>  <Molecule Max Phase>
None

>  <Molecular Weight>
725.56

>  <#RO5 Violations>
2

>  <AlogP>
9.28

>  <Compound Key>
81

>  <Standard Type>
IC50

>  <Standard Relation>
'='

>  <Standard Value>
4000.0

>  <Standard Units>
nM

$$$$

  Mrv2114 03112311372D          

 48 53  0  0  1  0            999 V2000
   -0.8543   -2.8347    0.0000 C   0  0  0  0  0  0  0  0  0  0  0  0
   -1.4063   -2.2216    0.0000 O   0  0  0  0  0  0  0  0  0  0  0  0
   -1.1514   -1.4370    0.0000 C   0  0  0  0  0  0  0  0  0  0  0  0
   -1.7034   -0.8239    0.0000 C   0  0  0  0  0  0  0  0  0  0  0  0
   -1.4485   -0.0392    0.0000 C   0  0  0  0  0  0  0  0  0  0  0  0
   -0.6415    0.1323    0.0000 C   0  0  0  0  0  0  0  0  0  0  0  0
   -0.3866    0.9169    0.0000 C   0  0  1  0  0  0  0  0  0  0  0  0
   -0.7611    1.6520    0.0000 C   0  0  0  0  0  0  0  0  0  0  0  0
   -0.0260    2.0265    0.0000 C   0  0  2  0  0  0  0  0  0  0  0  0
    0.2289    2.8111    0.0000 C   0  0  0  0  0  0  0  0  0  0  0  0
    1.0359    2.9827    0.0000 O   0  0  0  0  0  0  0  0  0  0  0  0
   -0.3231    3.4242    0.0000 O   0  0  0  0  0  0  0  0  0  0  0  0
    0.3485    1.2914    0.0000 C   0  0  0  0  0  0  0  0  0  0  0  0
   -0.0895   -0.4808    0.0000 C   0  0  0  0  0  0  0  0  0  0  0  0
   -0.3444   -1.2654    0.0000 C   0  0  0  0  0  0  0  0  0  0  0  0
    0.2076   -1.8785    0.0000 C   0  0  0  0  0  0  0  0  0  0  0  0
   -0.0473   -2.6631    0.0000 C   0  0  0  0  0  0  0  0  0  0  0  0
    0.5047   -3.2762    0.0000 C   0  0  0  0  0  0  0  0  0  0  0  0
    1.3117   -3.1047    0.0000 C   0  0  0  0  0  0  0  0  0  0  0  0
    1.8637   -3.7178    0.0000 C   0  0  0  0  0  0  0  0  0  0  0  0
    2.4158   -4.3309    0.0000 F   0  0  0  0  0  0  0  0  0  0  0  0
    1.2506   -4.2698    0.0000 F   0  0  0  0  0  0  0  0  0  0  0  0
    2.4768   -3.1658    0.0000 F   0  0  0  0  0  0  0  0  0  0  0  0
    1.5666   -2.3201    0.0000 C   0  0  0  0  0  0  0  0  0  0  0  0
    1.0146   -1.7070    0.0000 C   0  0  0  0  0  0  0  0  0  0  0  0
    1.2695   -0.9224    0.0000 C   0  0  2  0  0  0  0  0  0  0  0  0
    0.7846   -0.2549    0.0000 C   0  0  0  0  0  0  0  0  0  0  0  0
    1.2695    0.4125    0.0000 C   0  0  0  0  0  0  0  0  0  0  0  0
    2.0542    0.1576    0.0000 C   0  0  1  0  0  0  0  0  0  0  0  0
    2.8388    0.4125    0.0000 C   0  0  1  0  0  0  0  0  0  0  0  0
    3.0937    1.1971    0.0000 C   0  0  0  0  0  0  0  0  0  0  0  0
    2.5417    1.8102    0.0000 C   0  0  0  0  0  0  0  0  0  0  0  0
    2.7966    2.5948    0.0000 C   0  0  0  0  0  0  0  0  0  0  0  0
    2.2446    3.2079    0.0000 C   0  0  0  0  0  0  0  0  0  0  0  0
    1.6926    3.8210    0.0000 F   0  0  0  0  0  0  0  0  0  0  0  0
    2.8577    3.7600    0.0000 F   0  0  0  0  0  0  0  0  0  0  0  0
    1.6315    2.6559    0.0000 F   0  0  0  0  0  0  0  0  0  0  0  0
    3.6036    2.7664    0.0000 C   0  0  0  0  0  0  0  0  0  0  0  0
    4.1556    2.1533    0.0000 C   0  0  0  0  0  0  0  0  0  0  0  0
    4.9626    2.3248    0.0000 C   0  0  0  0  0  0  0  0  0  0  0  0
    5.7696    2.4963    0.0000 F   0  0  0  0  0  0  0  0  0  0  0  0
    5.1341    1.5178    0.0000 F   0  0  0  0  0  0  0  0  0  0  0  0
    4.7911    3.1318    0.0000 F   0  0  0  0  0  0  0  0  0  0  0  0
    3.9007    1.3686    0.0000 C   0  0  0  0  0  0  0  0  0  0  0  0
    3.3237   -0.2549    0.0000 O   0  0  0  0  0  0  0  0  0  0  0  0
    2.8388   -0.9224    0.0000 C   0  0  0  0  0  0  0  0  0  0  0  0
    3.0937   -1.7070    0.0000 O   0  0  0  0  0  0  0  0  0  0  0  0
    2.0542   -0.6674    0.0000 N   0  0  0  0  0  0  0  0  0  0  0  0
  1  2  1  0  0  0  0
  2  3  1  0  0  0  0
  3  4  4  0  0  0  0
  4  5  4  0  0  0  0
  5  6  4  0  0  0  0
  7  6  1  1  0  0  0
  7  8  1  0  0  0  0
  9  8  1  0  0  0  0
  9 10  1  6  0  0  0
 10 11  2  0  0  0  0
 10 12  1  0  0  0  0
  9 13  1  0  0  0  0
  7 13  1  0  0  0  0
  6 14  4  0  0  0  0
 14 15  4  0  0  0  0
  3 15  4  0  0  0  0
 15 16  1  0  0  0  0
 16 17  4  0  0  0  0
 17 18  4  0  0  0  0
 18 19  4  0  0  0  0
 19 20  1  0  0  0  0
 20 21  1  0  0  0  0
 20 22  1  0  0  0  0
 20 23  1  0  0  0  0
 19 24  4  0  0  0  0
 24 25  4  0  0  0  0
 16 25  4  0  0  0  0
 26 25  1  6  0  0  0
 26 27  1  0  0  0  0
 27 28  1  0  0  0  0
 29 28  1  0  0  0  0
 29 30  1  0  0  0  0
 30 31  1  1  0  0  0
 31 32  4  0  0  0  0
 32 33  4  0  0  0  0
 33 34  1  0  0  0  0
 34 35  1  0  0  0  0
 34 36  1  0  0  0  0
 34 37  1  0  0  0  0
 33 38  4  0  0  0  0
 38 39  4  0  0  0  0
 39 40  1  0  0  0  0
 40 41  1  0  0  0  0
 40 42  1  0  0  0  0
 40 43  1  0  0  0  0
 39 44  4  0  0  0  0
 31 44  4  0  0  0  0
 30 45  1  0  0  0  0
 45 46  1  0  0  0  0
 46 47  2  0  0  0  0
 46 48  1  0  0  0  0
 26 48  1  0  0  0  0
 29 48  1  1  0  0  0
M  END
>  <CdId>
763

>  <Mol Weight>
687.559

>  <Formula>
C33H26F9NO5

>  <Molecule ChEMBL ID>
CHEMBL3933320

>  <Molecule Max Phase>
None

>  <Molecular Weight>
687.56

>  <#RO5 Violations>
2

>  <AlogP>
9.39

>  <Compound Key>
94

>  <Standard Type>
IC50

>  <Standard Relation>
'='

>  <Standard Value>
4000.0

>  <Standard Units>
nM

$$$$

  Mrv2114 03112311372D          

 38 42  0  0  1  0            999 V2000
    0.7132   -7.2993    0.0000 C   0  0  0  0  0  0  0  0  0  0  0  0
    0.9681   -6.5147    0.0000 N   0  0  0  0  0  0  0  0  0  0  0  0
    0.4161   -5.9016    0.0000 C   0  0  1  0  0  0  0  0  0  0  0  0
   -0.3909   -6.0731    0.0000 C   0  0  0  0  0  0  0  0  0  0  0  0
    0.6710   -5.1170    0.0000 C   0  0  0  0  0  0  0  0  0  0  0  0
    1.4780   -4.9454    0.0000 O   0  0  0  0  0  0  0  0  0  0  0  0
    0.1190   -4.5039    0.0000 N   0  0  0  0  0  0  0  0  0  0  0  0
    0.3739   -3.7192    0.0000 C   0  0  0  0  0  0  0  0  0  0  0  0
   -0.1781   -3.1062    0.0000 C   0  0  0  0  0  0  0  0  0  0  0  0
    0.0768   -2.3215    0.0000 C   0  0  0  0  0  0  0  0  0  0  0  0
    0.8838   -2.1500    0.0000 C   0  0  0  0  0  0  0  0  0  0  0  0
    1.1387   -1.3654    0.0000 C   0  0  0  0  0  0  0  0  0  0  0  0
    0.6538   -0.6979    0.0000 C   0  0  0  0  0  0  0  0  0  0  0  0
   -0.1712   -0.6979    0.0000 C   0  0  0  0  0  0  0  0  0  0  0  0
   -0.5837   -1.4124    0.0000 C   0  0  0  0  0  0  0  0  0  0  0  0
   -1.4087   -1.4124    0.0000 C   0  0  0  0  0  0  0  0  0  0  0  0
   -1.8212   -0.6979    0.0000 N   0  0  0  0  0  0  0  0  0  0  0  0
   -1.4087    0.0165    0.0000 C   0  0  0  0  0  0  0  0  0  0  0  0
   -1.8212    0.7310    0.0000 C   0  0  0  0  0  0  0  0  0  0  0  0
   -0.5837    0.0165    0.0000 C   0  0  0  0  0  0  0  0  0  0  0  0
    1.1387   -0.0305    0.0000 N   0  0  0  0  0  0  0  0  0  0  0  0
    1.9233   -0.2854    0.0000 C   0  0  0  0  0  0  0  0  0  0  0  0
    2.6378    0.1271    0.0000 C   0  0  0  0  0  0  0  0  0  0  0  0
    3.3523   -0.2854    0.0000 C   0  0  0  0  0  0  0  0  0  0  0  0
    4.0668    0.1271    0.0000 C   0  0  0  0  0  0  0  0  0  0  0  0
    3.3523   -1.1104    0.0000 C   0  0  0  0  0  0  0  0  0  0  0  0
    2.6378   -1.5229    0.0000 C   0  0  0  0  0  0  0  0  0  0  0  0
    1.9233   -1.1104    0.0000 N   0  0  0  0  0  0  0  0  0  0  0  0
    1.4358   -2.7631    0.0000 C   0  0  0  0  0  0  0  0  0  0  0  0
    2.2428   -2.5916    0.0000 C   0  0  0  0  0  0  0  0  0  0  0  0
    3.0498   -2.4200    0.0000 C   0  0  0  0  0  0  0  0  0  0  0  0
    3.8567   -2.2485    0.0000 C   0  0  0  0  0  0  0  0  0  0  0  0
    4.1117   -1.4639    0.0000 C   0  0  0  0  0  0  0  0  0  0  0  0
    4.9186   -1.2924    0.0000 C   0  0  0  0  0  0  0  0  0  0  0  0
    5.4707   -1.9055    0.0000 C   0  0  0  0  0  0  0  0  0  0  0  0
    5.2157   -2.6901    0.0000 C   0  0  0  0  0  0  0  0  0  0  0  0
    4.4088   -2.8616    0.0000 C   0  0  0  0  0  0  0  0  0  0  0  0
    1.1809   -3.5477    0.0000 N   0  0  0  0  0  0  0  0  0  0  0  0
  1  2  1  0  0  0  0
  3  2  1  0  0  0  0
  3  4  1  1  0  0  0
  3  5  1  0  0  0  0
  5  6  2  0  0  0  0
  5  7  1  0  0  0  0
  7  8  1  0  0  0  0
  8  9  4  0  0  0  0
  9 10  4  0  0  0  0
 10 11  4  0  0  0  0
 11 12  1  0  0  0  0
 12 13  4  0  0  0  0
 13 14  1  0  0  0  0
 14 15  4  0  0  0  0
 15 16  4  0  0  0  0
 16 17  4  0  0  0  0
 17 18  4  0  0  0  0
 18 19  1  0  0  0  0
 18 20  4  0  0  0  0
 14 20  4  0  0  0  0
 13 21  4  0  0  0  0
 21 22  4  0  0  0  0
 22 23  4  0  0  0  0
 23 24  4  0  0  0  0
 24 25  1  0  0  0  0
 24 26  4  0  0  0  0
 26 27  4  0  0  0  0
 27 28  4  0  0  0  0
 12 28  4  0  0  0  0
 22 28  4  0  0  0  0
 11 29  4  0  0  0  0
 29 30  1  0  0  0  0
 30 31  3  0  0  0  0
 31 32  1  0  0  0  0
 32 33  4  0  0  0  0
 33 34  4  0  0  0  0
 34 35  4  0  0  0  0
 35 36  4  0  0  0  0
 36 37  4  0  0  0  0
 32 37  4  0  0  0  0
 29 38  4  0  0  0  0
  8 38  4  0  0  0  0
M  END
>  <CdId>
764

>  <Mol Weight>
500.606

>  <Formula>
C31H28N6O

>  <Molecule ChEMBL ID>
CHEMBL3958007

>  <Molecule Max Phase>
None

>  <Molecular Weight>
500.61

>  <#RO5 Violations>
2

>  <AlogP>
5.02

>  <Compound Key>
BDBM254001

>  <Standard Type>
IC50

>  <Standard Relation>
'='

>  <Standard Value>
15000.0

>  <Standard Units>
nM

$$$$

  Mrv2114 03112311372D          

 41 45  0  0  1  0            999 V2000
    0.0000   -2.4750    0.0000 C   0  0  0  0  0  0  0  0  0  0  0  0
    0.0000   -1.6500    0.0000 O   0  0  0  0  0  0  0  0  0  0  0  0
    0.7145   -1.2375    0.0000 C   0  0  0  0  0  0  0  0  0  0  0  0
    0.7145   -0.4125    0.0000 C   0  0  0  0  0  0  0  0  0  0  0  0
    1.4289    0.0000    0.0000 C   0  0  0  0  0  0  0  0  0  0  0  0
    2.1434   -0.4125    0.0000 C   0  0  0  0  0  0  0  0  0  0  0  0
    2.8579    0.0000    0.0000 C   0  0  0  0  0  0  0  0  0  0  0  0
    3.5724   -0.4125    0.0000 C   0  0  0  0  0  0  0  0  0  0  0  0
    4.2868   -0.0000    0.0000 C   0  0  0  0  0  0  0  0  0  0  0  0
    4.3731    0.8205    0.0000 C   0  0  0  0  0  0  0  0  0  0  0  0
    5.1800    0.9920    0.0000 C   0  0  0  0  0  0  0  0  0  0  0  0
    5.5156    1.7457    0.0000 C   0  0  0  0  0  0  0  0  0  0  0  0
    5.0307    2.4131    0.0000 C   0  0  0  0  0  0  0  0  0  0  0  0
    5.3662    3.1668    0.0000 C   0  0  0  0  0  0  0  0  0  0  0  0
    4.8813    3.8342    0.0000 Cl  0  0  0  0  0  0  0  0  0  0  0  0
    6.1867    3.2530    0.0000 C   0  0  0  0  0  0  0  0  0  0  0  0
    6.6716    2.5856    0.0000 C   0  0  0  0  0  0  0  0  0  0  0  0
    7.4921    2.6718    0.0000 Cl  0  0  0  0  0  0  0  0  0  0  0  0
    6.3361    1.8319    0.0000 C   0  0  0  0  0  0  0  0  0  0  0  0
    5.5925    0.2775    0.0000 N   0  0  0  0  0  0  0  0  0  0  0  0
    5.0405   -0.3356    0.0000 N   0  0  0  0  0  0  0  0  0  0  0  0
    5.2120   -1.1425    0.0000 C   0  0  1  0  0  0  0  0  0  0  0  0
    4.5989   -1.6946    0.0000 C   0  0  0  0  0  0  0  0  0  0  0  0
    5.9966   -1.3975    0.0000 C   0  0  0  0  0  0  0  0  0  0  0  0
    6.6097   -0.8454    0.0000 C   0  0  0  0  0  0  0  0  0  0  0  0
    7.3944   -1.1004    0.0000 C   0  0  0  0  0  0  0  0  0  0  0  0
    7.5659   -1.9073    0.0000 C   0  0  0  0  0  0  0  0  0  0  0  0
    8.3505   -2.1623    0.0000 C   0  0  0  0  0  0  0  0  0  0  0  0
    8.5220   -2.9693    0.0000 O   0  0  0  0  0  0  0  0  0  0  0  0
    8.9636   -1.6103    0.0000 N   0  0  0  0  0  0  0  0  0  0  0  0
    9.7482   -1.8652    0.0000 C   0  0  0  0  0  0  0  0  0  0  0  0
   10.3613   -1.3132    0.0000 C   0  0  0  0  0  0  0  0  0  0  0  0
   11.1459   -1.5681    0.0000 C   0  0  0  0  0  0  0  0  0  0  0  0
   11.7590   -1.0161    0.0000 O   0  0  0  0  0  0  0  0  0  0  0  0
   11.3175   -2.3751    0.0000 O   0  0  0  0  0  0  0  0  0  0  0  0
    6.9528   -2.4594    0.0000 C   0  0  0  0  0  0  0  0  0  0  0  0
    6.1682   -2.2044    0.0000 C   0  0  0  0  0  0  0  0  0  0  0  0
    3.5724   -1.2375    0.0000 C   0  0  0  0  0  0  0  0  0  0  0  0
    2.8579   -1.6500    0.0000 C   0  0  0  0  0  0  0  0  0  0  0  0
    2.1434   -1.2375    0.0000 C   0  0  0  0  0  0  0  0  0  0  0  0
    1.4289   -1.6500    0.0000 C   0  0  0  0  0  0  0  0  0  0  0  0
  1  2  1  0  0  0  0
  2  3  1  0  0  0  0
  3  4  4  0  0  0  0
  4  5  4  0  0  0  0
  5  6  4  0  0  0  0
  6  7  4  0  0  0  0
  7  8  4  0  0  0  0
  8  9  1  0  0  0  0
  9 10  4  0  0  0  0
 10 11  4  0  0  0  0
 11 12  1  0  0  0  0
 12 13  4  0  0  0  0
 13 14  4  0  0  0  0
 14 15  1  0  0  0  0
 14 16  4  0  0  0  0
 16 17  4  0  0  0  0
 17 18  1  0  0  0  0
 17 19  4  0  0  0  0
 12 19  4  0  0  0  0
 11 20  4  0  0  0  0
 20 21  4  0  0  0  0
  9 21  4  0  0  0  0
 22 21  1  0  0  0  0
 22 23  1  6  0  0  0
 22 24  1  0  0  0  0
 24 25  4  0  0  0  0
 25 26  4  0  0  0  0
 26 27  4  0  0  0  0
 27 28  1  0  0  0  0
 28 29  2  0  0  0  0
 28 30  1  0  0  0  0
 30 31  1  0  0  0  0
 31 32  1  0  0  0  0
 32 33  1  0  0  0  0
 33 34  2  0  0  0  0
 33 35  1  0  0  0  0
 27 36  4  0  0  0  0
 36 37  4  0  0  0  0
 24 37  4  0  0  0  0
  8 38  4  0  0  0  0
 38 39  4  0  0  0  0
 39 40  4  0  0  0  0
  6 40  4  0  0  0  0
 40 41  4  0  0  0  0
  3 41  4  0  0  0  0
M  END
>  <CdId>
765

>  <Mol Weight>
588.49

>  <Formula>
C32H27Cl2N3O4

>  <Molecule ChEMBL ID>
CHEMBL1933349

>  <Molecule Name>
MK-0893

>  <Molecule Max Phase>
2

>  <Molecular Weight>
588.49

>  <#RO5 Violations>
2

>  <AlogP>
7.5

>  <Compound Key>
9m, MK0893

>  <Standard Type>
IC50

>  <Standard Relation>
'='

>  <Standard Value>
2700.0

>  <Standard Units>
nM

$$$$

  Mrv2114 03112311372D          

 43 48  0  0  0  0            999 V2000
   -7.8592    0.4125    0.0000 C   0  0  0  0  0  0  0  0  0  0  0  0
   -7.1447    0.8250    0.0000 N   0  0  0  0  0  0  0  0  0  0  0  0
   -6.4302    0.4125    0.0000 C   0  0  0  0  0  0  0  0  0  0  0  0
   -6.4302   -0.4125    0.0000 C   0  0  0  0  0  0  0  0  0  0  0  0
   -5.7158    0.8250    0.0000 C   0  0  0  0  0  0  0  0  0  0  0  0
   -5.7158    1.6500    0.0000 O   0  0  0  0  0  0  0  0  0  0  0  0
   -5.0013    0.4125    0.0000 N   0  0  0  0  0  0  0  0  0  0  0  0
   -4.2868    0.8250    0.0000 C   0  0  0  0  0  0  0  0  0  0  0  0
   -4.2868    1.6500    0.0000 C   0  0  0  0  0  0  0  0  0  0  0  0
   -3.5724    2.0625    0.0000 C   0  0  0  0  0  0  0  0  0  0  0  0
   -2.8579    1.6500    0.0000 C   0  0  0  0  0  0  0  0  0  0  0  0
   -2.1434    2.0625    0.0000 C   0  0  0  0  0  0  0  0  0  0  0  0
   -2.0572    2.8830    0.0000 C   0  0  0  0  0  0  0  0  0  0  0  0
   -2.6703    3.4350    0.0000 C   0  0  0  0  0  0  0  0  0  0  0  0
   -3.4549    3.1801    0.0000 C   0  0  0  0  0  0  0  0  0  0  0  0
   -4.0680    3.7321    0.0000 C   0  0  0  0  0  0  0  0  0  0  0  0
   -3.8965    4.5391    0.0000 N   0  0  0  0  0  0  0  0  0  0  0  0
   -3.1118    4.7940    0.0000 C   0  0  0  0  0  0  0  0  0  0  0  0
   -2.4987    4.2420    0.0000 C   0  0  0  0  0  0  0  0  0  0  0  0
   -1.2502    3.0545    0.0000 N   0  0  0  0  0  0  0  0  0  0  0  0
   -0.8377    2.3400    0.0000 C   0  0  0  0  0  0  0  0  0  0  0  0
   -0.0307    2.1685    0.0000 C   0  0  0  0  0  0  0  0  0  0  0  0
    0.2242    1.3839    0.0000 C   0  0  0  0  0  0  0  0  0  0  0  0
    1.0312    1.2124    0.0000 C   0  0  0  0  0  0  0  0  0  0  0  0
   -0.3278    0.7708    0.0000 C   0  0  0  0  0  0  0  0  0  0  0  0
   -1.1348    0.9423    0.0000 C   0  0  0  0  0  0  0  0  0  0  0  0
   -1.3897    1.7269    0.0000 N   0  0  0  0  0  0  0  0  0  0  0  0
   -2.8579    0.8250    0.0000 C   0  0  0  0  0  0  0  0  0  0  0  0
   -2.1434    0.4125    0.0000 C   0  0  0  0  0  0  0  0  0  0  0  0
   -1.4289    0.0000    0.0000 C   0  0  0  0  0  0  0  0  0  0  0  0
   -0.7145   -0.4125    0.0000 C   0  0  0  0  0  0  0  0  0  0  0  0
   -0.7145   -1.2375    0.0000 C   0  0  0  0  0  0  0  0  0  0  0  0
    0.0000   -1.6500    0.0000 C   0  0  0  0  0  0  0  0  0  0  0  0
    0.7145   -1.2375    0.0000 C   0  0  0  0  0  0  0  0  0  0  0  0
    0.7145   -0.4125    0.0000 C   0  0  0  0  0  0  0  0  0  0  0  0
    0.0000   -0.0000    0.0000 C   0  0  0  0  0  0  0  0  0  0  0  0
    1.4289   -0.0000    0.0000 O   0  0  0  0  0  0  0  0  0  0  0  0
    2.1434   -0.4125    0.0000 C   0  0  0  0  0  0  0  0  0  0  0  0
    2.1434   -1.2375    0.0000 C   0  0  0  0  0  0  0  0  0  0  0  0
    2.8579   -1.6500    0.0000 O   0  0  0  0  0  0  0  0  0  0  0  0
    1.4289   -1.6500    0.0000 N   0  0  0  0  0  0  0  0  0  0  0  0
    1.4289   -2.4750    0.0000 C   0  0  0  0  0  0  0  0  0  0  0  0
   -3.5724    0.4125    0.0000 N   0  0  0  0  0  0  0  0  0  0  0  0
  1  2  1  0  0  0  0
  2  3  1  0  0  0  0
  3  4  1  0  0  0  0
  3  5  1  0  0  0  0
  5  6  2  0  0  0  0
  5  7  1  0  0  0  0
  7  8  1  0  0  0  0
  8  9  4  0  0  0  0
  9 10  4  0  0  0  0
 10 11  4  0  0  0  0
 11 12  1  0  0  0  0
 12 13  4  0  0  0  0
 13 14  1  0  0  0  0
 14 15  4  0  0  0  0
 15 16  4  0  0  0  0
 16 17  4  0  0  0  0
 17 18  4  0  0  0  0
 18 19  4  0  0  0  0
 14 19  4  0  0  0  0
 13 20  4  0  0  0  0
 20 21  4  0  0  0  0
 21 22  4  0  0  0  0
 22 23  4  0  0  0  0
 23 24  1  0  0  0  0
 23 25  4  0  0  0  0
 25 26  4  0  0  0  0
 26 27  4  0  0  0  0
 12 27  4  0  0  0  0
 21 27  4  0  0  0  0
 11 28  4  0  0  0  0
 28 29  1  0  0  0  0
 29 30  3  0  0  0  0
 30 31  1  0  0  0  0
 31 32  4  0  0  0  0
 32 33  4  0  0  0  0
 33 34  4  0  0  0  0
 34 35  4  0  0  0  0
 35 36  4  0  0  0  0
 31 36  4  0  0  0  0
 35 37  1  0  0  0  0
 37 38  1  0  0  0  0
 38 39  1  0  0  0  0
 39 40  2  0  0  0  0
 39 41  1  0  0  0  0
 34 41  1  0  0  0  0
 41 42  1  0  0  0  0
 28 43  4  0  0  0  0
  8 43  4  0  0  0  0
M  END
>  <CdId>
766

>  <Mol Weight>
571.641

>  <Formula>
C33H29N7O3

>  <Molecule ChEMBL ID>
CHEMBL3947193

>  <Molecule Max Phase>
None

>  <Molecular Weight>
571.64

>  <#RO5 Violations>
1

>  <AlogP>
4.07

>  <Compound Key>
BDBM253989

>  <Standard Type>
IC50

>  <Standard Relation>
'='

>  <Standard Value>
4900.0

>  <Standard Units>
nM

$$$$

  Mrv2114 03112311372D          

 32 34  0  0  1  0            999 V2000
   -6.4099    0.3789    0.0000 C   0  0  0  0  0  0  0  0  0  0  0  0
   -5.6954   -0.0336    0.0000 C   0  0  0  0  0  0  0  0  0  0  0  0
   -4.9809    0.3789    0.0000 C   0  0  0  0  0  0  0  0  0  0  0  0
   -4.2664   -0.0336    0.0000 N   0  0  0  0  0  0  0  0  0  0  0  0
   -4.2664   -0.8586    0.0000 C   0  0  0  0  0  0  0  0  0  0  0  0
   -3.5520    0.3789    0.0000 C   0  0  0  0  0  0  0  0  0  0  0  0
   -3.5520    1.2039    0.0000 O   0  0  0  0  0  0  0  0  0  0  0  0
   -2.8375   -0.0336    0.0000 O   0  0  0  0  0  0  0  0  0  0  0  0
   -2.1230    0.3789    0.0000 C   0  0  0  0  0  0  0  0  0  0  0  0
   -1.4086   -0.0336    0.0000 C   0  0  0  0  0  0  0  0  0  0  0  0
   -0.6549    0.3019    0.0000 C   0  0  0  0  0  0  0  0  0  0  0  0
   -0.4834    1.1089    0.0000 C   0  0  0  0  0  0  0  0  0  0  0  0
   -1.0965    1.6609    0.0000 C   0  0  0  0  0  0  0  0  0  0  0  0
   -0.9249    2.4679    0.0000 C   0  0  0  0  0  0  0  0  0  0  0  0
   -0.1403    2.7228    0.0000 C   0  0  0  0  0  0  0  0  0  0  0  0
    0.0312    3.5298    0.0000 O   0  0  0  0  0  0  0  0  0  0  0  0
   -0.5819    4.0818    0.0000 C   0  0  1  0  0  0  0  0  0  0  0  0
   -1.3665    3.8269    0.0000 C   0  0  0  0  0  0  0  0  0  0  0  0
   -1.9796    4.3789    0.0000 C   0  0  0  0  0  0  0  0  0  0  0  0
   -1.8081    5.1859    0.0000 C   0  0  0  0  0  0  0  0  0  0  0  0
   -1.0234    5.4408    0.0000 C   0  0  2  0  0  0  0  0  0  0  0  0
   -0.8519    6.2478    0.0000 C   0  0  0  0  0  0  0  0  0  0  0  0
   -1.4650    6.7998    0.0000 O   0  0  0  0  0  0  0  0  0  0  0  0
   -0.0673    6.5027    0.0000 O   0  0  0  0  0  0  0  0  0  0  0  0
   -0.4103    4.8888    0.0000 C   0  0  0  0  0  0  0  0  0  0  0  0
    0.4728    2.1708    0.0000 C   0  0  0  0  0  0  0  0  0  0  0  0
    1.2574    2.4257    0.0000 C   0  0  0  0  0  0  0  0  0  0  0  0
    0.3013    1.3638    0.0000 N   0  0  0  0  0  0  0  0  0  0  0  0
   -0.1029   -0.3112    0.0000 N   0  0  0  0  0  0  0  0  0  0  0  0
   -0.5154   -1.0257    0.0000 N   0  0  0  0  0  0  0  0  0  0  0  0
   -1.3223   -0.8541    0.0000 N   0  0  0  0  0  0  0  0  0  0  0  0
   -1.9354   -1.4062    0.0000 C   0  0  0  0  0  0  0  0  0  0  0  0
  1  2  1  0  0  0  0
  2  3  1  0  0  0  0
  3  4  1  0  0  0  0
  4  5  1  0  0  0  0
  4  6  1  0  0  0  0
  6  7  2  0  0  0  0
  6  8  1  0  0  0  0
  8  9  1  0  0  0  0
  9 10  1  0  0  0  0
 10 11  4  0  0  0  0
 11 12  1  0  0  0  0
 12 13  4  0  0  0  0
 13 14  4  0  0  0  0
 14 15  4  0  0  0  0
 15 16  1  0  0  0  0
 17 16  1  1  0  0  0
 17 18  1  0  0  0  0
 18 19  1  0  0  0  0
 19 20  1  0  0  0  0
 21 20  1  0  0  0  0
 21 22  1  6  0  0  0
 22 23  2  0  0  0  0
 22 24  1  0  0  0  0
 21 25  1  0  0  0  0
 17 25  1  0  0  0  0
 15 26  4  0  0  0  0
 26 27  1  0  0  0  0
 26 28  4  0  0  0  0
 12 28  4  0  0  0  0
 11 29  4  0  0  0  0
 29 30  4  0  0  0  0
 30 31  4  0  0  0  0
 10 31  4  0  0  0  0
 31 32  1  0  0  0  0
M  END
>  <CdId>
767

>  <Mol Weight>
445.52

>  <Formula>
C22H31N5O5

>  <Molecule ChEMBL ID>
CHEMBL5087506

>  <Molecule Name>
BMS-986278

>  <Molecule Max Phase>
2

>  <Molecular Weight>
445.52

>  <#RO5 Violations>
0

>  <AlogP>
3.19

>  <Compound Key>
33; BMS-986278

>  <Standard Type>
IC50

>  <Standard Relation>
'>'

>  <Standard Value>
40000.0

>  <Standard Units>
nM

$$$$

  Mrv2114 03112311372D          

 27 30  0  0  0  0            999 V2000
    7.9408   -1.1317    0.0000 C   0  0  0  0  0  0  0  0  0  0  0  0
    7.2263   -1.5442    0.0000 C   0  0  0  0  0  0  0  0  0  0  0  0
    7.2263   -2.3692    0.0000 C   0  0  0  0  0  0  0  0  0  0  0  0
    6.5119   -2.7817    0.0000 C   0  0  0  0  0  0  0  0  0  0  0  0
    6.5119   -3.6067    0.0000 C   0  0  0  0  0  0  0  0  0  0  0  0
    5.7974   -4.0192    0.0000 O   0  0  0  0  0  0  0  0  0  0  0  0
    7.2263   -4.0192    0.0000 O   0  0  0  0  0  0  0  0  0  0  0  0
    5.7974   -2.3692    0.0000 C   0  0  0  0  0  0  0  0  0  0  0  0
    5.0128   -2.6241    0.0000 O   0  0  0  0  0  0  0  0  0  0  0  0
    4.5278   -1.9567    0.0000 C   0  0  0  0  0  0  0  0  0  0  0  0
    3.7028   -1.9567    0.0000 C   0  0  0  0  0  0  0  0  0  0  0  0
    3.2903   -2.6712    0.0000 N   0  0  0  0  0  0  0  0  0  0  0  0
    2.4653   -2.6712    0.0000 C   0  0  0  0  0  0  0  0  0  0  0  0
    2.0528   -1.9567    0.0000 O   0  0  0  0  0  0  0  0  0  0  0  0
    2.0528   -3.3856    0.0000 C   0  0  0  0  0  0  0  0  0  0  0  0
    2.3884   -4.1393    0.0000 C   0  0  0  0  0  0  0  0  0  0  0  0
    1.7753   -4.6913    0.0000 N   0  0  0  0  0  0  0  0  0  0  0  0
    1.0608   -4.2788    0.0000 N   0  0  0  0  0  0  0  0  0  0  0  0
    0.2762   -4.5338    0.0000 C   0  0  0  0  0  0  0  0  0  0  0  0
   -0.3369   -3.9818    0.0000 C   0  0  0  0  0  0  0  0  0  0  0  0
   -0.1654   -3.1748    0.0000 C   0  0  0  0  0  0  0  0  0  0  0  0
    0.6193   -2.9198    0.0000 N   0  0  0  0  0  0  0  0  0  0  0  0
    1.2324   -3.4719    0.0000 C   0  0  0  0  0  0  0  0  0  0  0  0
    5.0128   -1.2893    0.0000 C   0  0  0  0  0  0  0  0  0  0  0  0
    4.7578   -0.5046    0.0000 Cl  0  0  0  0  0  0  0  0  0  0  0  0
    5.7974   -1.5442    0.0000 C   0  0  0  0  0  0  0  0  0  0  0  0
    6.5119   -1.1317    0.0000 C   0  0  0  0  0  0  0  0  0  0  0  0
  1  2  1  0  0  0  0
  2  3  4  0  0  0  0
  3  4  4  0  0  0  0
  4  5  1  0  0  0  0
  5  6  2  0  0  0  0
  5  7  1  0  0  0  0
  4  8  4  0  0  0  0
  8  9  4  0  0  0  0
  9 10  4  0  0  0  0
 10 11  1  0  0  0  0
 11 12  1  0  0  0  0
 12 13  1  0  0  0  0
 13 14  2  0  0  0  0
 13 15  1  0  0  0  0
 15 16  4  0  0  0  0
 16 17  4  0  0  0  0
 17 18  4  0  0  0  0
 18 19  4  0  0  0  0
 19 20  4  0  0  0  0
 20 21  4  0  0  0  0
 21 22  4  0  0  0  0
 22 23  4  0  0  0  0
 15 23  4  0  0  0  0
 18 23  4  0  0  0  0
 10 24  4  0  0  0  0
 24 25  1  0  0  0  0
 24 26  4  0  0  0  0
  8 26  4  0  0  0  0
 26 27  4  0  0  0  0
  2 27  4  0  0  0  0
M  END
>  <CdId>
768

>  <Mol Weight>
384.78

>  <Formula>
C18H13ClN4O4

>  <Molecule ChEMBL ID>
CHEMBL5077683

>  <Molecule Max Phase>
None

>  <Molecular Weight>
384.78

>  <#RO5 Violations>
0

>  <AlogP>
3.07

>  <Compound Key>
22

>  <Standard Type>
IC50

>  <Standard Relation>
'>'

>  <Standard Value>
20000.0

>  <Standard Units>
nM

$$$$

  Mrv2114 03112311372D          

 34 37  0  0  1  0            999 V2000
   -6.4491   -3.7918    0.0000 C   0  0  0  0  0  0  0  0  0  0  0  0
   -5.6644   -3.5369    0.0000 C   0  0  0  0  0  0  0  0  0  0  0  0
   -5.4929   -2.7299    0.0000 N   0  0  0  0  0  0  0  0  0  0  0  0
   -4.7083   -2.4750    0.0000 C   0  0  0  0  0  0  0  0  0  0  0  0
   -4.5368   -1.6680    0.0000 C   0  0  0  0  0  0  0  0  0  0  0  0
   -5.0888   -1.0549    0.0000 N   0  0  0  0  0  0  0  0  0  0  0  0
   -4.6763   -0.3405    0.0000 N   0  0  0  0  0  0  0  0  0  0  0  0
   -3.8693   -0.5120    0.0000 N   0  0  0  0  0  0  0  0  0  0  0  0
   -3.2562    0.0400    0.0000 C   0  0  0  0  0  0  0  0  0  0  0  0
   -3.7831   -1.3325    0.0000 C   0  0  0  0  0  0  0  0  0  0  0  0
   -3.0686   -1.7450    0.0000 C   0  0  0  0  0  0  0  0  0  0  0  0
   -2.3541   -1.3325    0.0000 O   0  0  0  0  0  0  0  0  0  0  0  0
   -1.6397   -1.7450    0.0000 C   0  0  0  0  0  0  0  0  0  0  0  0
   -1.6397   -2.5700    0.0000 O   0  0  0  0  0  0  0  0  0  0  0  0
   -0.9252   -1.3325    0.0000 N   0  0  0  0  0  0  0  0  0  0  0  0
   -0.9252   -0.5075    0.0000 C   0  0  0  0  0  0  0  0  0  0  0  0
   -0.2107   -1.7450    0.0000 C   0  0  0  0  0  0  0  0  0  0  0  0
    0.5037   -1.3325    0.0000 C   0  0  0  0  0  0  0  0  0  0  0  0
    0.7173   -0.5356    0.0000 C   0  0  0  0  0  0  0  0  0  0  0  0
    1.5142   -0.7491    0.0000 C   0  0  0  0  0  0  0  0  0  0  0  0
    1.3006   -1.5460    0.0000 C   0  0  0  0  0  0  0  0  0  0  0  0
   -4.0952   -3.0270    0.0000 C   0  0  0  0  0  0  0  0  0  0  0  0
   -4.2667   -3.8340    0.0000 C   0  0  0  0  0  0  0  0  0  0  0  0
   -5.0513   -4.0889    0.0000 C   0  0  0  0  0  0  0  0  0  0  0  0
   -5.2229   -4.8959    0.0000 O   0  0  0  0  0  0  0  0  0  0  0  0
   -4.6098   -5.4479    0.0000 C   0  0  1  0  0  0  0  0  0  0  0  0
   -3.8252   -5.1930    0.0000 C   0  0  0  0  0  0  0  0  0  0  0  0
   -3.2121   -5.7450    0.0000 C   0  0  0  0  0  0  0  0  0  0  0  0
   -3.3836   -6.5520    0.0000 C   0  0  0  0  0  0  0  0  0  0  0  0
   -4.1682   -6.8070    0.0000 C   0  0  2  0  0  0  0  0  0  0  0  0
   -4.3397   -7.6139    0.0000 C   0  0  0  0  0  0  0  0  0  0  0  0
   -3.7266   -8.1660    0.0000 O   0  0  0  0  0  0  0  0  0  0  0  0
   -5.1244   -7.8689    0.0000 O   0  0  0  0  0  0  0  0  0  0  0  0
   -4.7813   -6.2549    0.0000 C   0  0  0  0  0  0  0  0  0  0  0  0
  1  2  1  0  0  0  0
  2  3  4  0  0  0  0
  3  4  4  0  0  0  0
  4  5  1  0  0  0  0
  5  6  4  0  0  0  0
  6  7  4  0  0  0  0
  7  8  4  0  0  0  0
  8  9  1  0  0  0  0
  8 10  4  0  0  0  0
  5 10  4  0  0  0  0
 10 11  1  0  0  0  0
 11 12  1  0  0  0  0
 12 13  1  0  0  0  0
 13 14  2  0  0  0  0
 13 15  1  0  0  0  0
 15 16  1  0  0  0  0
 15 17  1  0  0  0  0
 17 18  1  0  0  0  0
 18 19  1  0  0  0  0
 19 20  1  0  0  0  0
 20 21  1  0  0  0  0
 18 21  1  0  0  0  0
  4 22  4  0  0  0  0
 22 23  4  0  0  0  0
 23 24  4  0  0  0  0
  2 24  4  0  0  0  0
 24 25  1  0  0  0  0
 26 25  1  1  0  0  0
 26 27  1  0  0  0  0
 27 28  1  0  0  0  0
 28 29  1  0  0  0  0
 30 29  1  0  0  0  0
 30 31  1  6  0  0  0
 31 32  2  0  0  0  0
 31 33  1  0  0  0  0
 30 34  1  0  0  0  0
 26 34  1  0  0  0  0
M  END
>  <CdId>
769

>  <Mol Weight>
471.558

>  <Formula>
C24H33N5O5

>  <Molecule ChEMBL ID>
CHEMBL5072201

>  <Molecule Max Phase>
None

>  <Molecular Weight>
471.56

>  <#RO5 Violations>
0

>  <AlogP>
3.58

>  <Compound Key>
25

>  <Standard Type>
IC50

>  <Standard Relation>
'>'

>  <Standard Value>
40000.0

>  <Standard Units>
nM

$$$$

  Mrv2114 03112311372D          

 30 35  0  0  0  0            999 V2000
    9.9204   -0.2978    0.0000 C   0  0  0  0  0  0  0  0  0  0  0  0
    9.9204   -1.1228    0.0000 C   0  0  0  0  0  0  0  0  0  0  0  0
    9.2059   -1.5353    0.0000 C   0  0  0  0  0  0  0  0  0  0  0  0
    8.4915   -1.1228    0.0000 C   0  0  0  0  0  0  0  0  0  0  0  0
    7.7069   -1.3777    0.0000 O   0  0  0  0  0  0  0  0  0  0  0  0
    7.2219   -0.7103    0.0000 C   0  0  0  0  0  0  0  0  0  0  0  0
    6.3969   -0.7103    0.0000 C   0  0  0  0  0  0  0  0  0  0  0  0
    5.9120   -1.3777    0.0000 C   0  0  0  0  0  0  0  0  0  0  0  0
    5.1274   -1.1228    0.0000 S   0  0  0  0  0  0  0  0  0  0  0  0
    5.1274   -0.2978    0.0000 C   0  0  0  0  0  0  0  0  0  0  0  0
    4.4599    0.1872    0.0000 C   0  0  0  0  0  0  0  0  0  0  0  0
    3.7063   -0.1484    0.0000 C   0  0  0  0  0  0  0  0  0  0  0  0
    3.0388    0.3365    0.0000 C   0  0  0  0  0  0  0  0  0  0  0  0
    3.1251    1.1570    0.0000 N   0  0  0  0  0  0  0  0  0  0  0  0
    2.4576    1.6419    0.0000 C   0  0  0  0  0  0  0  0  0  0  0  0
    2.5439    2.4624    0.0000 C   0  0  0  0  0  0  0  0  0  0  0  0
    1.9308    3.0144    0.0000 N   0  0  0  0  0  0  0  0  0  0  0  0
    2.2663    3.7681    0.0000 C   0  0  0  0  0  0  0  0  0  0  0  0
    1.9308    4.5218    0.0000 C   0  0  0  0  0  0  0  0  0  0  0  0
    2.4157    5.1892    0.0000 N   0  0  0  0  0  0  0  0  0  0  0  0
    3.2362    5.1030    0.0000 C   0  0  0  0  0  0  0  0  0  0  0  0
    3.5717    4.3493    0.0000 C   0  0  0  0  0  0  0  0  0  0  0  0
    3.0868    3.6819    0.0000 C   0  0  0  0  0  0  0  0  0  0  0  0
    3.2583    2.8749    0.0000 N   0  0  0  0  0  0  0  0  0  0  0  0
    3.8787    1.4926    0.0000 C   0  0  0  0  0  0  0  0  0  0  0  0
    4.5462    1.0076    0.0000 C   0  0  0  0  0  0  0  0  0  0  0  0
    5.9120   -0.0428    0.0000 N   0  0  0  0  0  0  0  0  0  0  0  0
    7.7069   -0.0428    0.0000 C   0  0  0  0  0  0  0  0  0  0  0  0
    8.4915   -0.2978    0.0000 C   0  0  0  0  0  0  0  0  0  0  0  0
    9.2059    0.1147    0.0000 C   0  0  0  0  0  0  0  0  0  0  0  0
  1  2  4  0  0  0  0
  2  3  4  0  0  0  0
  3  4  4  0  0  0  0
  4  5  4  0  0  0  0
  5  6  4  0  0  0  0
  6  7  1  0  0  0  0
  7  8  4  0  0  0  0
  8  9  4  0  0  0  0
  9 10  4  0  0  0  0
 10 11  1  0  0  0  0
 11 12  1  0  0  0  0
 12 13  1  0  0  0  0
 13 14  1  0  0  0  0
 14 15  1  0  0  0  0
 15 16  1  0  0  0  0
 16 17  4  0  0  0  0
 17 18  4  0  0  0  0
 18 19  4  0  0  0  0
 19 20  4  0  0  0  0
 20 21  4  0  0  0  0
 21 22  4  0  0  0  0
 22 23  4  0  0  0  0
 18 23  4  0  0  0  0
 23 24  4  0  0  0  0
 16 24  4  0  0  0  0
 14 25  1  0  0  0  0
 25 26  1  0  0  0  0
 11 26  1  0  0  0  0
 10 27  4  0  0  0  0
  7 27  4  0  0  0  0
  6 28  4  0  0  0  0
 28 29  4  0  0  0  0
  4 29  4  0  0  0  0
 29 30  4  0  0  0  0
  1 30  4  0  0  0  0
M  STY  1   1 DAT
M  SAL   1  1  24
M  SDT   1 MRV_IMPLICIT_H                                        
M  SDD   1     0.0000    0.0000    DR    ALL  0       0  
M  SED   1 IMPL_H1
M  END
>  <CdId>
770

>  <Mol Weight>
415.52

>  <Formula>
C23H21N5OS

>  <Molecule ChEMBL ID>
CHEMBL5086239

>  <Molecule Max Phase>
None

>  <Molecular Weight>
415.52

>  <#RO5 Violations>
1

>  <AlogP>
5.21

>  <Compound Key>
38; BAY-178

>  <Standard Type>
IC50

>  <Standard Relation>
'='

>  <Standard Value>
590.0

>  <Standard Units>
nM

$$$$

  Mrv2114 03112311372D          

 38 42  0  0  1  0            999 V2000
    1.3184    2.0625    0.0000 C   0  0  0  0  0  0  0  0  0  0  0  0
    2.1434    2.0625    0.0000 C   0  0  0  0  0  0  0  0  0  0  0  0
    2.9684    2.0625    0.0000 C   0  0  0  0  0  0  0  0  0  0  0  0
    2.1434    2.8875    0.0000 C   0  0  0  0  0  0  0  0  0  0  0  0
    2.8579    3.3000    0.0000 O   0  0  0  0  0  0  0  0  0  0  0  0
    1.4289    3.3000    0.0000 N   0  0  0  0  0  0  0  0  0  0  0  0
    1.4289    4.1250    0.0000 C   0  0  0  0  0  0  0  0  0  0  0  0
    0.7145    4.5375    0.0000 N   0  0  0  0  0  0  0  0  0  0  0  0
    2.1434    4.5375    0.0000 O   0  0  0  0  0  0  0  0  0  0  0  0
    2.1434    1.2375    0.0000 C   0  0  2  0  0  0  0  0  0  0  0  0
    2.8579    0.8250    0.0000 C   0  0  0  0  0  0  0  0  0  0  0  0
    3.5724    1.2375    0.0000 C   0  0  0  0  0  0  0  0  0  0  0  0
    4.2868    0.8250    0.0000 C   0  0  0  0  0  0  0  0  0  0  0  0
    4.2868   -0.0000    0.0000 C   0  0  0  0  0  0  0  0  0  0  0  0
    5.0013   -0.4125    0.0000 C   0  0  0  0  0  0  0  0  0  0  0  0
    5.7158   -0.0000    0.0000 C   0  0  0  0  0  0  0  0  0  0  0  0
    6.4302   -0.4125    0.0000 C   0  0  0  0  0  0  0  0  0  0  0  0
    6.4302   -1.2375    0.0000 C   0  0  0  0  0  0  0  0  0  0  0  0
    7.1447   -1.6500    0.0000 C   0  0  0  0  0  0  0  0  0  0  0  0
    7.8592   -1.2375    0.0000 O   0  0  0  0  0  0  0  0  0  0  0  0
    7.1447   -2.4750    0.0000 N   0  0  0  0  0  0  0  0  0  0  0  0
    7.8592   -2.8875    0.0000 C   0  0  0  0  0  0  0  0  0  0  0  0
    7.8592   -3.7125    0.0000 C   0  0  0  0  0  0  0  0  0  0  0  0
    7.1447   -4.1250    0.0000 O   0  0  0  0  0  0  0  0  0  0  0  0
    6.4302   -3.7125    0.0000 C   0  0  0  0  0  0  0  0  0  0  0  0
    6.4302   -2.8875    0.0000 C   0  0  0  0  0  0  0  0  0  0  0  0
    5.7158   -1.6500    0.0000 C   0  0  0  0  0  0  0  0  0  0  0  0
    5.0013   -1.2375    0.0000 C   0  0  0  0  0  0  0  0  0  0  0  0
    3.5724   -0.4125    0.0000 N   0  0  0  0  0  0  0  0  0  0  0  0
    2.8579    0.0000    0.0000 C   0  0  0  0  0  0  0  0  0  0  0  0
    2.1434   -0.4125    0.0000 O   0  0  0  0  0  0  0  0  0  0  0  0
    1.4289    0.0000    0.0000 C   0  0  0  0  0  0  0  0  0  0  0  0
    0.7145   -0.4125    0.0000 C   0  0  0  0  0  0  0  0  0  0  0  0
    0.7145   -1.2375    0.0000 F   0  0  0  0  0  0  0  0  0  0  0  0
    0.0000    0.0000    0.0000 C   0  0  0  0  0  0  0  0  0  0  0  0
    0.0000    0.8250    0.0000 C   0  0  0  0  0  0  0  0  0  0  0  0
    0.7145    1.2375    0.0000 C   0  0  0  0  0  0  0  0  0  0  0  0
    1.4289    0.8250    0.0000 C   0  0  0  0  0  0  0  0  0  0  0  0
  1  2  1  0  0  0  0
  2  3  1  0  0  0  0
  2  4  1  0  0  0  0
  4  5  2  0  0  0  0
  4  6  1  0  0  0  0
  6  7  1  0  0  0  0
  7  8  1  0  0  0  0
  7  9  2  0  0  0  0
 10  2  1  6  0  0  0
 10 11  1  0  0  0  0
 11 12  4  0  0  0  0
 12 13  4  0  0  0  0
 13 14  4  0  0  0  0
 14 15  1  0  0  0  0
 15 16  4  0  0  0  0
 16 17  4  0  0  0  0
 17 18  4  0  0  0  0
 18 19  1  0  0  0  0
 19 20  2  0  0  0  0
 19 21  1  0  0  0  0
 21 22  1  0  0  0  0
 22 23  1  0  0  0  0
 23 24  1  0  0  0  0
 24 25  1  0  0  0  0
 25 26  1  0  0  0  0
 21 26  1  0  0  0  0
 18 27  4  0  0  0  0
 27 28  4  0  0  0  0
 15 28  4  0  0  0  0
 14 29  4  0  0  0  0
 29 30  4  0  0  0  0
 11 30  4  0  0  0  0
 30 31  1  0  0  0  0
 31 32  1  0  0  0  0
 32 33  4  0  0  0  0
 33 34  1  0  0  0  0
 33 35  4  0  0  0  0
 35 36  4  0  0  0  0
 36 37  4  0  0  0  0
 37 38  4  0  0  0  0
 32 38  4  0  0  0  0
 10 38  1  0  0  0  0
M  END
>  <CdId>
771

>  <Mol Weight>
518.545

>  <Formula>
C28H27FN4O5

>  <Molecule ChEMBL ID>
CHEMBL3315061

>  <Molecule Max Phase>
None

>  <Molecular Weight>
518.55

>  <#RO5 Violations>
1

>  <AlogP>
3.82

>  <Compound Key>
26

>  <Standard Type>
IC50

>  <Standard Relation>
'='

>  <Standard Value>
8900.0

>  <Standard Units>
nM

$$$$

  Mrv2114 03112311372D          

 29 32  0  0  1  0            999 V2000
    0.7145   -5.3625    0.0000 C   0  0  0  0  0  0  0  0  0  0  0  0
    1.4289   -4.9500    0.0000 C   0  0  1  0  0  0  0  0  0  0  0  0
    2.1434   -5.3625    0.0000 N   0  0  0  0  0  0  0  0  0  0  0  0
    2.1434   -6.1875    0.0000 C   0  0  0  0  0  0  0  0  0  0  0  0
    1.4289   -6.6000    0.0000 O   0  0  0  0  0  0  0  0  0  0  0  0
    2.8579   -6.6000    0.0000 C   0  0  0  0  0  0  0  0  0  0  0  0
    3.5724   -6.1875    0.0000 C   0  0  0  0  0  0  0  0  0  0  0  0
    4.2868   -6.6000    0.0000 C   0  0  0  0  0  0  0  0  0  0  0  0
    4.2868   -7.4250    0.0000 C   0  0  0  0  0  0  0  0  0  0  0  0
    5.0013   -7.8375    0.0000 Cl  0  0  0  0  0  0  0  0  0  0  0  0
    3.5724   -7.8375    0.0000 C   0  0  0  0  0  0  0  0  0  0  0  0
    2.8579   -7.4250    0.0000 C   0  0  0  0  0  0  0  0  0  0  0  0
    1.4289   -4.1250    0.0000 C   0  0  1  0  0  0  0  0  0  0  0  0
    0.7145   -3.7125    0.0000 C   0  0  0  0  0  0  0  0  0  0  0  0
    0.7145   -2.8875    0.0000 C   0  0  0  0  0  0  0  0  0  0  0  0
    1.4289   -2.4750    0.0000 C   0  0  1  0  0  0  0  0  0  0  0  0
    1.4289   -1.6500    0.0000 C   0  0  0  0  0  0  0  0  0  0  0  0
    0.7145   -1.2375    0.0000 C   0  0  0  0  0  0  0  0  0  0  0  0
    0.7145   -0.4125    0.0000 C   0  0  0  0  0  0  0  0  0  0  0  0
    1.4289    0.0000    0.0000 N   0  0  0  0  0  0  0  0  0  0  0  0
    2.1434   -0.4125    0.0000 C   0  0  0  0  0  0  0  0  0  0  0  0
    2.8579    0.0000    0.0000 C   0  0  0  0  0  0  0  0  0  0  0  0
    3.5724   -0.4125    0.0000 C   0  0  0  0  0  0  0  0  0  0  0  0
    3.5724   -1.2375    0.0000 C   0  0  0  0  0  0  0  0  0  0  0  0
    4.2868   -1.6500    0.0000 F   0  0  0  0  0  0  0  0  0  0  0  0
    2.8579   -1.6500    0.0000 C   0  0  0  0  0  0  0  0  0  0  0  0
    2.1434   -1.2375    0.0000 C   0  0  0  0  0  0  0  0  0  0  0  0
    2.1434   -2.8875    0.0000 C   0  0  0  0  0  0  0  0  0  0  0  0
    2.1434   -3.7125    0.0000 C   0  0  0  0  0  0  0  0  0  0  0  0
  2  1  1  6  0  0  0
  2  3  1  0  0  0  0
  3  4  1  0  0  0  0
  4  5  2  0  0  0  0
  4  6  1  0  0  0  0
  6  7  4  0  0  0  0
  7  8  4  0  0  0  0
  8  9  4  0  0  0  0
  9 10  1  0  0  0  0
  9 11  4  0  0  0  0
 11 12  4  0  0  0  0
  6 12  4  0  0  0  0
  2 13  1  0  0  0  0
 13 14  1  1  0  0  0
 14 15  1  0  0  0  0
 16 15  1  0  0  0  0
 16 17  1  1  0  0  0
 17 18  4  0  0  0  0
 18 19  4  0  0  0  0
 19 20  4  0  0  0  0
 20 21  4  0  0  0  0
 21 22  4  0  0  0  0
 22 23  4  0  0  0  0
 23 24  4  0  0  0  0
 24 25  1  0  0  0  0
 24 26  4  0  0  0  0
 26 27  4  0  0  0  0
 21 27  4  0  0  0  0
 17 27  4  0  0  0  0
 16 28  1  0  0  0  0
 28 29  1  0  0  0  0
 13 29  1  0  0  0  0
M  END
>  <CdId>
772

>  <Mol Weight>
410.92

>  <Formula>
C24H24ClFN2O

>  <Molecule ChEMBL ID>
CHEMBL4786690

>  <Molecule Max Phase>
None

>  <Molecular Weight>
410.92

>  <#RO5 Violations>
1

>  <AlogP>
6.12

>  <Compound Key>
25; BMS-986242

>  <Standard Type>
IC50

>  <Standard Relation>
'='

>  <Standard Value>
1390.0

>  <Standard Units>
nM

$$$$

  Mrv2114 03112311372D          

 29 32  0  0  1  0            999 V2000
    1.5983   -3.3875    0.0000 C   0  0  0  0  0  0  0  0  0  0  0  0
    1.8532   -2.6029    0.0000 C   0  0  1  0  0  0  0  0  0  0  0  0
    1.3683   -1.9354    0.0000 C   0  0  0  0  0  0  0  0  0  0  0  0
    1.8532   -1.2680    0.0000 O   0  0  0  0  0  0  0  0  0  0  0  0
    2.6378   -1.5229    0.0000 C   0  0  2  0  0  0  0  0  0  0  0  0
    3.3523   -1.1104    0.0000 C   0  0  0  0  0  0  0  0  0  0  0  0
    4.0668   -1.5229    0.0000 N   0  0  0  0  0  0  0  0  0  0  0  0
    4.7812   -1.1104    0.0000 C   0  0  0  0  0  0  0  0  0  0  0  0
    5.4957   -1.5229    0.0000 C   0  0  0  0  0  0  0  0  0  0  0  0
    6.2102   -1.1104    0.0000 C   0  0  0  0  0  0  0  0  0  0  0  0
    6.2102   -0.2854    0.0000 O   0  0  0  0  0  0  0  0  0  0  0  0
    6.9246   -1.5229    0.0000 N   0  0  0  0  0  0  0  0  0  0  0  0
    7.6391   -1.1104    0.0000 C   0  0  0  0  0  0  0  0  0  0  0  0
    8.3536   -1.5229    0.0000 C   0  0  0  0  0  0  0  0  0  0  0  0
    9.0681   -1.1104    0.0000 C   0  0  0  0  0  0  0  0  0  0  0  0
    9.7825   -1.5229    0.0000 C   0  0  0  0  0  0  0  0  0  0  0  0
    9.7825   -2.3479    0.0000 C   0  0  0  0  0  0  0  0  0  0  0  0
   10.4970   -2.7604    0.0000 F   0  0  0  0  0  0  0  0  0  0  0  0
    9.0681   -2.7604    0.0000 N   0  0  0  0  0  0  0  0  0  0  0  0
    8.3536   -2.3479    0.0000 C   0  0  0  0  0  0  0  0  0  0  0  0
    7.6391   -2.7604    0.0000 F   0  0  0  0  0  0  0  0  0  0  0  0
    5.4957   -2.3479    0.0000 C   0  0  0  0  0  0  0  0  0  0  0  0
    6.2102   -2.7604    0.0000 O   0  0  0  0  0  0  0  0  0  0  0  0
    4.7812   -2.7604    0.0000 C   0  0  0  0  0  0  0  0  0  0  0  0
    4.7812   -3.5854    0.0000 O   0  0  0  0  0  0  0  0  0  0  0  0
    4.0668   -2.3479    0.0000 C   0  0  0  0  0  0  0  0  0  0  0  0
    3.3523   -2.7604    0.0000 C   0  0  0  0  0  0  0  0  0  0  0  0
    3.3523   -3.5854    0.0000 O   0  0  0  0  0  0  0  0  0  0  0  0
    2.6378   -2.3479    0.0000 N   0  0  0  0  0  0  0  0  0  0  0  0
  2  1  1  1  0  0  0
  2  3  1  0  0  0  0
  3  4  1  0  0  0  0
  5  4  1  0  0  0  0
  5  6  1  0  0  0  0
  6  7  1  0  0  0  0
  7  8  4  0  0  0  0
  8  9  4  0  0  0  0
  9 10  1  0  0  0  0
 10 11  2  0  0  0  0
 10 12  1  0  0  0  0
 12 13  1  0  0  0  0
 13 14  1  0  0  0  0
 14 15  4  0  0  0  0
 15 16  4  0  0  0  0
 16 17  4  0  0  0  0
 17 18  1  0  0  0  0
 17 19  4  0  0  0  0
 19 20  4  0  0  0  0
 14 20  4  0  0  0  0
 20 21  1  0  0  0  0
  9 22  4  0  0  0  0
 22 23  2  0  0  0  0
 22 24  4  0  0  0  0
 24 25  1  0  0  0  0
 24 26  4  0  0  0  0
  7 26  4  0  0  0  0
 26 27  1  0  0  0  0
 27 28  2  0  0  0  0
 27 29  1  0  0  0  0
  2 29  1  0  0  0  0
  5 29  1  6  0  0  0
M  END
>  <CdId>
773

>  <Mol Weight>
406.346

>  <Formula>
C18H16F2N4O5

>  <Molecule ChEMBL ID>
CHEMBL4744587

>  <Molecule Max Phase>
None

>  <Molecular Weight>
406.35

>  <#RO5 Violations>
0

>  <AlogP>
0.36

>  <Compound Key>
1(26)

>  <Standard Type>
IC50

>  <Standard Relation>
'>'

>  <Standard Value>
10000.0

>  <Standard Units>
nM

$$$$

  Mrv2114 03112311372D          

 40 43  0  0  1  0            999 V2000
   -2.4145   -3.7071    0.0000 C   0  0  0  0  0  0  0  0  0  0  0  0
   -1.7845   -3.1744    0.0000 C   0  0  0  0  0  0  0  0  0  0  0  0
   -1.2518   -3.8045    0.0000 C   0  0  0  0  0  0  0  0  0  0  0  0
   -2.3171   -2.5444    0.0000 O   0  0  0  0  0  0  0  0  0  0  0  0
   -1.1544   -2.6418    0.0000 C   0  0  0  0  0  0  0  0  0  0  0  0
   -1.3007   -1.8299    0.0000 O   0  0  0  0  0  0  0  0  0  0  0  0
   -0.3781   -2.9211    0.0000 N   0  0  0  0  0  0  0  0  0  0  0  0
    0.2519   -2.3885    0.0000 C   0  0  2  0  0  0  0  0  0  0  0  0
    0.1913   -1.5657    0.0000 C   0  0  0  0  0  0  0  0  0  0  0  0
    0.9551   -1.2539    0.0000 C   0  0  0  0  0  0  0  0  0  0  0  0
    1.4877   -1.8839    0.0000 C   0  0  1  0  0  0  0  0  0  0  0  0
    1.8467   -1.1411    0.0000 S   0  0  0  0  0  0  0  0  0  0  0  0
    2.5737   -0.7511    0.0000 O   0  0  0  0  0  0  0  0  0  0  0  0
    1.1038   -0.7822    0.0000 O   0  0  0  0  0  0  0  0  0  0  0  0
    2.2056   -0.3983    0.0000 C   0  0  0  0  0  0  0  0  0  0  0  0
    1.7417    0.2840    0.0000 C   0  0  0  0  0  0  0  0  0  0  0  0
    2.1007    1.0268    0.0000 C   0  0  0  0  0  0  0  0  0  0  0  0
    2.9234    1.0874    0.0000 C   0  0  0  0  0  0  0  0  0  0  0  0
    3.2824    1.8302    0.0000 F   0  0  0  0  0  0  0  0  0  0  0  0
    3.3873    0.4051    0.0000 C   0  0  0  0  0  0  0  0  0  0  0  0
    3.0284   -0.3377    0.0000 C   0  0  0  0  0  0  0  0  0  0  0  0
    2.3123   -1.9097    0.0000 C   0  0  0  0  0  0  0  0  0  0  0  0
    2.7469   -1.2084    0.0000 C   0  0  0  0  0  0  0  0  0  0  0  0
    3.5715   -1.2342    0.0000 C   0  0  0  0  0  0  0  0  0  0  0  0
    3.9615   -1.9612    0.0000 C   0  0  0  0  0  0  0  0  0  0  0  0
    4.7861   -1.9870    0.0000 C   0  0  0  0  0  0  0  0  0  0  0  0
    4.8119   -1.1624    0.0000 F   0  0  0  0  0  0  0  0  0  0  0  0
    4.7603   -2.8116    0.0000 C   0  0  0  0  0  0  0  0  0  0  0  0
    4.7346   -3.6362    0.0000 F   0  0  0  0  0  0  0  0  0  0  0  0
    3.9358   -2.7858    0.0000 F   0  0  0  0  0  0  0  0  0  0  0  0
    5.5849   -2.8373    0.0000 F   0  0  0  0  0  0  0  0  0  0  0  0
    5.6107   -2.0127    0.0000 C   0  0  0  0  0  0  0  0  0  0  0  0
    6.4353   -2.0385    0.0000 F   0  0  0  0  0  0  0  0  0  0  0  0
    6.0746   -2.6950    0.0000 F   0  0  0  0  0  0  0  0  0  0  0  0
    5.6365   -1.1881    0.0000 F   0  0  0  0  0  0  0  0  0  0  0  0
    3.5269   -2.6624    0.0000 N   0  0  0  0  0  0  0  0  0  0  0  0
    2.7023   -2.6367    0.0000 C   0  0  0  0  0  0  0  0  0  0  0  0
    2.2677   -3.3379    0.0000 C   0  0  0  0  0  0  0  0  0  0  0  0
    1.4431   -3.3122    0.0000 C   0  0  0  0  0  0  0  0  0  0  0  0
    1.0531   -2.5852    0.0000 C   0  0  1  0  0  0  0  0  0  0  0  0
  1  2  1  0  0  0  0
  2  3  1  0  0  0  0
  2  4  1  0  0  0  0
  2  5  1  0  0  0  0
  5  6  2  0  0  0  0
  5  7  1  0  0  0  0
  8  7  1  6  0  0  0
  8  9  1  0  0  0  0
  9 10  1  0  0  0  0
 11 10  1  0  0  0  0
 11 12  1  6  0  0  0
 12 13  2  0  0  0  0
 12 14  2  0  0  0  0
 12 15  1  0  0  0  0
 15 16  4  0  0  0  0
 16 17  4  0  0  0  0
 17 18  4  0  0  0  0
 18 19  1  0  0  0  0
 18 20  4  0  0  0  0
 20 21  4  0  0  0  0
 15 21  4  0  0  0  0
 11 22  1  0  0  0  0
 22 23  4  0  0  0  0
 23 24  4  0  0  0  0
 24 25  4  0  0  0  0
 25 26  1  0  0  0  0
 26 27  1  0  0  0  0
 26 28  1  0  0  0  0
 28 29  1  0  0  0  0
 28 30  1  0  0  0  0
 28 31  1  0  0  0  0
 26 32  1  0  0  0  0
 32 33  1  0  0  0  0
 32 34  1  0  0  0  0
 32 35  1  0  0  0  0
 25 36  4  0  0  0  0
 36 37  4  0  0  0  0
 22 37  4  0  0  0  0
 37 38  1  0  0  0  0
 38 39  1  0  0  0  0
 40 39  1  1  0  0  0
 40  8  1  0  0  0  0
 40 11  1  0  0  0  0
M  END
>  <CdId>
774

>  <Mol Weight>
600.52

>  <Formula>
C25H24F8N2O4S

>  <Molecule ChEMBL ID>
CHEMBL4750756

>  <Molecule Max Phase>
None

>  <Molecular Weight>
600.53

>  <#RO5 Violations>
1

>  <AlogP>
4.79

>  <Compound Key>
8a

>  <Standard Type>
IC50

>  <Standard Relation>
'='

>  <Standard Value>
8300.0

>  <Standard Units>
nM

$$$$

  Mrv2114 03112311372D          

 33 34  0  0  0  0            999 V2000
   -2.1434   -3.7125    0.0000 C   0  0  0  0  0  0  0  0  0  0  0  0
   -1.4289   -3.3000    0.0000 O   0  0  0  0  0  0  0  0  0  0  0  0
   -0.7145   -3.7125    0.0000 C   0  0  0  0  0  0  0  0  0  0  0  0
    0.0000   -3.3000    0.0000 C   0  0  0  0  0  0  0  0  0  0  0  0
    0.7145   -3.7125    0.0000 C   0  0  0  0  0  0  0  0  0  0  0  0
    0.7145   -4.5375    0.0000 C   0  0  0  0  0  0  0  0  0  0  0  0
    1.4289   -4.9500    0.0000 C   0  0  0  0  0  0  0  0  0  0  0  0
    2.1434   -4.5375    0.0000 C   0  0  0  0  0  0  0  0  0  0  0  0
    2.8579   -4.9500    0.0000 N   0  0  0  0  0  0  0  0  0  0  0  0
    2.8579   -5.7750    0.0000 C   0  0  0  0  0  0  0  0  0  0  0  0
    3.5724   -4.5375    0.0000 C   0  0  0  0  0  0  0  0  0  0  0  0
    4.2868   -4.9500    0.0000 C   0  0  0  0  0  0  0  0  0  0  0  0
    5.0013   -4.5375    0.0000 C   0  0  0  0  0  0  0  0  0  0  0  0
    5.7158   -4.9500    0.0000 C   0  0  0  0  0  0  0  0  0  0  0  0
    5.3033   -5.6645    0.0000 C   0  0  0  0  0  0  0  0  0  0  0  0
    4.8908   -6.3789    0.0000 N   0  0  0  0  0  0  0  0  0  0  0  0
    6.4302   -5.3625    0.0000 C   0  0  0  0  0  0  0  0  0  0  0  0
    7.1447   -4.9500    0.0000 C   0  0  0  0  0  0  0  0  0  0  0  0
    7.8592   -5.3625    0.0000 C   0  0  0  0  0  0  0  0  0  0  0  0
    7.8592   -6.1875    0.0000 C   0  0  0  0  0  0  0  0  0  0  0  0
    8.5737   -6.6000    0.0000 O   0  0  0  0  0  0  0  0  0  0  0  0
    9.2881   -6.1875    0.0000 C   0  0  0  0  0  0  0  0  0  0  0  0
    7.1447   -6.6000    0.0000 C   0  0  0  0  0  0  0  0  0  0  0  0
    7.1447   -7.4250    0.0000 O   0  0  0  0  0  0  0  0  0  0  0  0
    6.4302   -7.8375    0.0000 C   0  0  0  0  0  0  0  0  0  0  0  0
    6.4302   -6.1875    0.0000 C   0  0  0  0  0  0  0  0  0  0  0  0
    6.1283   -4.2355    0.0000 C   0  0  0  0  0  0  0  0  0  0  0  0
    6.9533   -4.2355    0.0000 C   0  0  0  0  0  0  0  0  0  0  0  0
    5.7158   -3.5211    0.0000 C   0  0  0  0  0  0  0  0  0  0  0  0
    0.0000   -4.9500    0.0000 C   0  0  0  0  0  0  0  0  0  0  0  0
   -0.7145   -4.5375    0.0000 C   0  0  0  0  0  0  0  0  0  0  0  0
   -1.4289   -4.9500    0.0000 O   0  0  0  0  0  0  0  0  0  0  0  0
   -2.1434   -4.5375    0.0000 C   0  0  0  0  0  0  0  0  0  0  0  0
  1  2  1  0  0  0  0
  2  3  1  0  0  0  0
  3  4  4  0  0  0  0
  4  5  4  0  0  0  0
  5  6  4  0  0  0  0
  6  7  1  0  0  0  0
  7  8  1  0  0  0  0
  8  9  1  0  0  0  0
  9 10  1  0  0  0  0
  9 11  1  0  0  0  0
 11 12  1  0  0  0  0
 12 13  1  0  0  0  0
 13 14  1  0  0  0  0
 14 15  1  0  0  0  0
 15 16  3  0  0  0  0
 14 17  1  0  0  0  0
 17 18  4  0  0  0  0
 18 19  4  0  0  0  0
 19 20  4  0  0  0  0
 20 21  1  0  0  0  0
 21 22  1  0  0  0  0
 20 23  4  0  0  0  0
 23 24  1  0  0  0  0
 24 25  1  0  0  0  0
 23 26  4  0  0  0  0
 17 26  4  0  0  0  0
 14 27  1  0  0  0  0
 27 28  1  0  0  0  0
 27 29  1  0  0  0  0
  6 30  4  0  0  0  0
 30 31  4  0  0  0  0
  3 31  4  0  0  0  0
 31 32  1  0  0  0  0
 32 33  1  0  0  0  0
M  END
>  <CdId>
775

>  <Mol Weight>
454.611

>  <Formula>
C27H38N2O4

>  <Molecule ChEMBL ID>
CHEMBL6966

>  <Molecule Name>
VERAPAMIL

>  <Molecule Max Phase>
4

>  <Molecular Weight>
454.61

>  <#RO5 Violations>
1

>  <AlogP>
5.09

>  <Compound Key>
Verapamil

>  <Standard Type>
IC50

>  <Standard Relation>
'>'

>  <Standard Value>
30000.0

>  <Standard Units>
nM

$$$$

  Mrv2114 03112311372D          

 35 38  0  0  1  0            999 V2000
   -2.3981   -6.8106    0.0000 C   0  0  0  0  0  0  0  0  0  0  0  0
   -1.7307   -6.3257    0.0000 O   0  0  0  0  0  0  0  0  0  0  0  0
   -1.8169   -5.5052    0.0000 C   0  0  0  0  0  0  0  0  0  0  0  0
   -1.1495   -5.0203    0.0000 C   0  0  2  0  0  0  0  0  0  0  0  0
   -0.6646   -5.6877    0.0000 C   0  0  0  0  0  0  0  0  0  0  0  0
    0.1559   -5.6015    0.0000 O   0  0  0  0  0  0  0  0  0  0  0  0
   -0.4820   -4.5353    0.0000 O   0  0  0  0  0  0  0  0  0  0  0  0
   -0.5683   -3.7149    0.0000 C   0  0  0  0  0  0  0  0  0  0  0  0
    0.0992   -3.2299    0.0000 C   0  0  1  0  0  0  0  0  0  0  0  0
    0.0992   -2.4049    0.0000 O   0  0  0  0  0  0  0  0  0  0  0  0
    0.8838   -2.1500    0.0000 C   0  0  1  0  0  0  0  0  0  0  0  0
    1.1387   -1.3654    0.0000 N   0  0  0  0  0  0  0  0  0  0  0  0
    0.6538   -0.6979    0.0000 N   0  0  0  0  0  0  0  0  0  0  0  0
    1.1387   -0.0305    0.0000 C   0  0  0  0  0  0  0  0  0  0  0  0
    1.9233   -0.2854    0.0000 C   0  0  0  0  0  0  0  0  0  0  0  0
    2.6378    0.1271    0.0000 C   0  0  0  0  0  0  0  0  0  0  0  0
    2.6378    0.9521    0.0000 N   0  0  0  0  0  0  0  0  0  0  0  0
    3.3523    1.3646    0.0000 C   0  0  0  0  0  0  0  0  0  0  0  0
    3.4385    2.1850    0.0000 C   0  0  0  0  0  0  0  0  0  0  0  0
    4.2455    2.3566    0.0000 C   0  0  0  0  0  0  0  0  0  0  0  0
    4.6580    1.6421    0.0000 C   0  0  0  0  0  0  0  0  0  0  0  0
    4.1060    1.0290    0.0000 C   0  0  0  0  0  0  0  0  0  0  0  0
    3.3523   -0.2854    0.0000 N   0  0  0  0  0  0  0  0  0  0  0  0
    3.3523   -1.1104    0.0000 C   0  0  0  0  0  0  0  0  0  0  0  0
    4.0668   -1.5229    0.0000 Cl  0  0  0  0  0  0  0  0  0  0  0  0
    2.6378   -1.5229    0.0000 N   0  0  0  0  0  0  0  0  0  0  0  0
    1.9233   -1.1104    0.0000 C   0  0  0  0  0  0  0  0  0  0  0  0
    1.3687   -2.8174    0.0000 C   0  0  2  0  0  0  0  0  0  0  0  0
    2.1937   -2.8174    0.0000 O   0  0  0  0  0  0  0  0  0  0  0  0
    0.8838   -3.4849    0.0000 C   0  0  2  0  0  0  0  0  0  0  0  0
    1.1387   -4.2695    0.0000 O   0  0  0  0  0  0  0  0  0  0  0  0
   -1.6344   -4.3528    0.0000 P   0  0  0  0  0  0  0  0  0  0  0  0
   -2.1193   -3.6854    0.0000 O   0  0  0  0  0  0  0  0  0  0  0  0
   -0.9670   -3.8679    0.0000 O   0  0  0  0  0  0  0  0  0  0  0  0
   -2.3018   -4.8378    0.0000 O   0  0  0  0  0  0  0  0  0  0  0  0
  1  2  1  0  0  0  0
  2  3  1  0  0  0  0
  4  3  1  0  0  0  0
  4  5  1  0  0  0  0
  5  6  1  0  0  0  0
  4  7  1  1  0  0  0
  7  8  1  0  0  0  0
  9  8  1  1  0  0  0
  9 10  1  0  0  0  0
 11 10  1  0  0  0  0
 11 12  1  1  0  0  0
 12 13  4  0  0  0  0
 13 14  4  0  0  0  0
 14 15  4  0  0  0  0
 15 16  4  0  0  0  0
 16 17  1  0  0  0  0
 17 18  1  0  0  0  0
 18 19  1  0  0  0  0
 19 20  1  0  0  0  0
 20 21  1  0  0  0  0
 21 22  1  0  0  0  0
 18 22  1  0  0  0  0
 16 23  4  0  0  0  0
 23 24  4  0  0  0  0
 24 25  1  0  0  0  0
 24 26  4  0  0  0  0
 26 27  4  0  0  0  0
 15 27  4  0  0  0  0
 12 27  4  0  0  0  0
 28 11  1  0  0  0  0
 28 29  1  6  0  0  0
 28 30  1  0  0  0  0
 30  9  1  0  0  0  0
 30 31  1  6  0  0  0
  4 32  1  6  0  0  0
 32 33  2  0  0  0  0
 32 34  1  0  0  0  0
 32 35  1  0  0  0  0
M  END
>  <CdId>
776

>  <Mol Weight>
537.89

>  <Formula>
C19H29ClN5O9P

>  <Molecule ChEMBL ID>
CHEMBL4764985

>  <Molecule Max Phase>
None

>  <Molecular Weight>
537.89

>  <#RO5 Violations>
3

>  <AlogP>
-0.02

>  <Compound Key>
35, OP-5244

>  <Standard Type>
IC50

>  <Standard Relation>
'>'

>  <Standard Value>
20000.0

>  <Standard Units>
nM

$$$$

  Mrv2114 03112311372D          

 26 28  0  0  1  0            999 V2000
   -0.0724   -1.0881    0.0000 C   0  0  0  0  0  0  0  0  0  0  0  0
    0.0992   -1.8951    0.0000 C   0  0  0  0  0  0  0  0  0  0  0  0
    0.8838   -2.1500    0.0000 C   0  0  2  0  0  0  0  0  0  0  0  0
    1.6684   -2.4049    0.0000 C   0  0  0  0  0  0  0  0  0  0  0  0
    1.8399   -3.2119    0.0000 O   0  0  0  0  0  0  0  0  0  0  0  0
    0.6288   -2.9346    0.0000 C   0  0  0  0  0  0  0  0  0  0  0  0
    1.1809   -3.5477    0.0000 C   0  0  0  0  0  0  0  0  0  0  0  0
    0.9259   -4.3323    0.0000 C   0  0  0  0  0  0  0  0  0  0  0  0
    0.1190   -4.5039    0.0000 C   0  0  0  0  0  0  0  0  0  0  0  0
   -0.1360   -5.2885    0.0000 Cl  0  0  0  0  0  0  0  0  0  0  0  0
   -0.4331   -3.8908    0.0000 C   0  0  0  0  0  0  0  0  0  0  0  0
   -0.1781   -3.1062    0.0000 C   0  0  0  0  0  0  0  0  0  0  0  0
    1.1387   -1.3654    0.0000 N   0  0  0  0  0  0  0  0  0  0  0  0
    0.6538   -0.6979    0.0000 C   0  0  0  0  0  0  0  0  0  0  0  0
    1.1387   -0.0305    0.0000 C   0  0  0  0  0  0  0  0  0  0  0  0
    1.9233   -0.2854    0.0000 C   0  0  0  0  0  0  0  0  0  0  0  0
    2.6378    0.1271    0.0000 C   0  0  0  0  0  0  0  0  0  0  0  0
    2.6378    0.9521    0.0000 N   0  0  0  0  0  0  0  0  0  0  0  0
    1.9233    1.3646    0.0000 S   0  0  0  0  0  0  0  0  0  0  0  0
    1.2089    1.7771    0.0000 C   0  0  0  0  0  0  0  0  0  0  0  0
    2.3358    2.0790    0.0000 O   0  0  0  0  0  0  0  0  0  0  0  0
    1.5108    0.6501    0.0000 O   0  0  0  0  0  0  0  0  0  0  0  0
    3.3523   -0.2854    0.0000 C   0  0  0  0  0  0  0  0  0  0  0  0
    3.3523   -1.1104    0.0000 C   0  0  0  0  0  0  0  0  0  0  0  0
    2.6378   -1.5229    0.0000 C   0  0  0  0  0  0  0  0  0  0  0  0
    1.9233   -1.1104    0.0000 C   0  0  0  0  0  0  0  0  0  0  0  0
  1  2  1  0  0  0  0
  3  2  1  6  0  0  0
  3  4  1  0  0  0  0
  4  5  1  0  0  0  0
  3  6  1  0  0  0  0
  6  7  4  0  0  0  0
  7  8  4  0  0  0  0
  8  9  4  0  0  0  0
  9 10  1  0  0  0  0
  9 11  4  0  0  0  0
 11 12  4  0  0  0  0
  6 12  4  0  0  0  0
  3 13  1  1  0  0  0
 13 14  4  0  0  0  0
 14 15  4  0  0  0  0
 15 16  4  0  0  0  0
 16 17  4  0  0  0  0
 17 18  1  0  0  0  0
 18 19  1  0  0  0  0
 19 20  1  0  0  0  0
 19 21  2  0  0  0  0
 19 22  2  0  0  0  0
 17 23  4  0  0  0  0
 23 24  4  0  0  0  0
 24 25  4  0  0  0  0
 25 26  4  0  0  0  0
 16 26  4  0  0  0  0
 13 26  4  0  0  0  0
M  END
>  <CdId>
777

>  <Mol Weight>
392.9

>  <Formula>
C19H21ClN2O3S

>  <Molecule ChEMBL ID>
CHEMBL4439903

>  <Molecule Max Phase>
None

>  <Molecular Weight>
392.91

>  <#RO5 Violations>
0

>  <AlogP>
3.81

>  <Compound Key>
28

>  <Standard Type>
IC50

>  <Standard Relation>
'>'

>  <Standard Value>
13000.0

>  <Standard Units>
nM

$$$$

  Mrv2114 03112311372D          

  8  7  0  0  0  0            999 V2000
    1.2375    2.1434    0.0000 C   0  0  0  0  0  0  0  0  0  0  0  0
    1.6500    1.4289    0.0000 C   0  0  0  0  0  0  0  0  0  0  0  0
    1.2375    0.7145    0.0000 C   0  0  0  0  0  0  0  0  0  0  0  0
    0.5230    1.1270    0.0000 C   0  0  0  0  0  0  0  0  0  0  0  0
    1.9520    0.3020    0.0000 C   0  0  0  0  0  0  0  0  0  0  0  0
    0.8250    0.0000    0.0000 C   0  0  0  0  0  0  0  0  0  0  0  0
    1.2375   -0.7145    0.0000 O   0  0  0  0  0  0  0  0  0  0  0  0
    0.0000    0.0000    0.0000 O   0  0  0  0  0  0  0  0  0  0  0  0
  1  2  1  0  0  0  0
  2  3  1  0  0  0  0
  3  4  1  0  0  0  0
  3  5  1  0  0  0  0
  3  6  1  0  0  0  0
  6  7  2  0  0  0  0
  6  8  1  0  0  0  0
M  END
>  <CdId>
778

>  <Mol Weight>
116.16

>  <Formula>
C6H12O2

>  <Molecule ChEMBL ID>
CHEMBL286013

>  <Molecule Name>
DIMEBUTIC ACID

>  <Molecule Max Phase>
2

>  <Molecular Weight>
116.16

>  <#RO5 Violations>
0

>  <AlogP>
1.51

>  <Compound Key>
10; HST5040A

>  <Standard Type>
IC50

>  <Standard Relation>
'>'

>  <Standard Value>
1.0E7

>  <Standard Units>
nM

$$$$

  Mrv2114 03112311372D          

 35 38  0  0  1  0            999 V2000
    0.0000    0.0000    0.0000 C   0  0  0  0  0  0  0  0  0  0  0  0
    0.7145   -0.4125    0.0000 C   0  0  0  0  0  0  0  0  0  0  0  0
    1.4289    0.0000    0.0000 N   0  0  0  0  0  0  0  0  0  0  0  0
    2.1434   -0.4125    0.0000 C   0  0  0  0  0  0  0  0  0  0  0  0
    2.8579    0.0000    0.0000 C   0  0  0  0  0  0  0  0  0  0  0  0
    3.5724   -0.4125    0.0000 C   0  0  0  0  0  0  0  0  0  0  0  0
    4.2868   -0.0000    0.0000 F   0  0  0  0  0  0  0  0  0  0  0  0
    3.5724   -1.2375    0.0000 C   0  0  0  0  0  0  0  0  0  0  0  0
    4.2868   -1.6500    0.0000 C   0  0  0  0  0  0  0  0  0  0  0  0
    5.0013   -1.2375    0.0000 C   0  0  0  0  0  0  0  0  0  0  0  0
    5.7158   -1.6500    0.0000 N   0  0  0  0  0  0  0  0  0  0  0  0
    5.7158   -2.4750    0.0000 C   0  0  0  0  0  0  0  0  0  0  0  0
    6.4302   -2.8875    0.0000 C   0  0  0  0  0  0  0  0  0  0  0  0
    7.1447   -3.3000    0.0000 C   0  0  0  0  0  0  0  0  0  0  0  0
    6.8427   -2.1730    0.0000 C   0  0  0  0  0  0  0  0  0  0  0  0
    6.0177   -3.6020    0.0000 O   0  0  0  0  0  0  0  0  0  0  0  0
    5.0013   -2.8875    0.0000 N   0  0  0  0  0  0  0  0  0  0  0  0
    4.2868   -2.4750    0.0000 C   0  0  0  0  0  0  0  0  0  0  0  0
    2.8579   -1.6500    0.0000 N   0  0  0  0  0  0  0  0  0  0  0  0
    2.1434   -1.2375    0.0000 C   0  0  0  0  0  0  0  0  0  0  0  0
    1.4289   -1.6500    0.0000 C   0  0  0  0  0  0  0  0  0  0  0  0
    1.4289   -2.4750    0.0000 N   0  0  0  0  0  0  0  0  0  0  0  0
    2.1434   -2.8875    0.0000 C   0  0  2  0  0  0  0  0  0  0  0  0
    2.8579   -2.4750    0.0000 C   0  0  0  0  0  0  0  0  0  0  0  0
    2.1434   -3.7125    0.0000 C   0  0  0  0  0  0  0  0  0  0  0  0
    2.8579   -4.1250    0.0000 C   0  0  0  0  0  0  0  0  0  0  0  0
    2.8579   -4.9500    0.0000 C   0  0  0  0  0  0  0  0  0  0  0  0
    3.5724   -5.3625    0.0000 C   0  0  0  0  0  0  0  0  0  0  0  0
    4.2868   -5.7750    0.0000 N   0  0  0  0  0  0  0  0  0  0  0  0
    2.1434   -5.3625    0.0000 C   0  0  0  0  0  0  0  0  0  0  0  0
    1.4289   -4.9500    0.0000 C   0  0  0  0  0  0  0  0  0  0  0  0
    1.4289   -4.1250    0.0000 C   0  0  0  0  0  0  0  0  0  0  0  0
    0.7145   -3.7125    0.0000 F   0  0  0  0  0  0  0  0  0  0  0  0
    0.7145   -1.2375    0.0000 C   0  0  0  0  0  0  0  0  0  0  0  0
    0.0000   -1.6500    0.0000 Cl  0  0  0  0  0  0  0  0  0  0  0  0
  1  2  1  0  0  0  0
  2  3  4  0  0  0  0
  3  4  4  0  0  0  0
  4  5  4  0  0  0  0
  5  6  4  0  0  0  0
  6  7  1  0  0  0  0
  6  8  4  0  0  0  0
  8  9  1  0  0  0  0
  9 10  4  0  0  0  0
 10 11  4  0  0  0  0
 11 12  4  0  0  0  0
 12 13  1  0  0  0  0
 13 14  1  0  0  0  0
 13 15  1  0  0  0  0
 13 16  1  0  0  0  0
 12 17  4  0  0  0  0
 17 18  4  0  0  0  0
  9 18  4  0  0  0  0
  8 19  4  0  0  0  0
 19 20  4  0  0  0  0
  4 20  4  0  0  0  0
 20 21  4  0  0  0  0
 21 22  1  0  0  0  0
 23 22  1  0  0  0  0
 23 24  1  6  0  0  0
 23 25  1  0  0  0  0
 25 26  4  0  0  0  0
 26 27  4  0  0  0  0
 27 28  1  0  0  0  0
 28 29  3  0  0  0  0
 27 30  4  0  0  0  0
 30 31  4  0  0  0  0
 31 32  4  0  0  0  0
 25 32  4  0  0  0  0
 32 33  1  0  0  0  0
 21 34  4  0  0  0  0
  2 34  4  0  0  0  0
 34 35  1  0  0  0  0
M  END
>  <CdId>
779

>  <Mol Weight>
494.93

>  <Formula>
C25H21ClF2N6O

>  <Molecule ChEMBL ID>
CHEMBL4777447

>  <Molecule Max Phase>
None

>  <Molecular Weight>
494.93

>  <#RO5 Violations>
1

>  <AlogP>
5.6

>  <Compound Key>
42

>  <Standard Type>
IC50

>  <Standard Relation>
'>'

>  <Standard Value>
6700.0

>  <Standard Units>
nM

$$$$

  Mrv2114 03112311372D          

 35 39  0  0  1  0            999 V2000
   -0.4875   -4.1277    0.0000 C   0  0  0  0  0  0  0  0  0  0  0  0
   -1.0396   -3.5146    0.0000 C   0  0  0  0  0  0  0  0  0  0  0  0
   -0.7846   -2.7299    0.0000 N   0  0  0  0  0  0  0  0  0  0  0  0
   -1.2695   -2.0625    0.0000 C   0  0  0  0  0  0  0  0  0  0  0  0
   -2.0945   -2.0625    0.0000 C   0  0  0  0  0  0  0  0  0  0  0  0
   -2.5070   -2.7770    0.0000 C   0  0  0  0  0  0  0  0  0  0  0  0
   -3.3320   -2.7770    0.0000 N   0  0  0  0  0  0  0  0  0  0  0  0
   -3.7445   -2.0625    0.0000 C   0  0  0  0  0  0  0  0  0  0  0  0
   -4.5695   -2.0625    0.0000 C   0  0  0  0  0  0  0  0  0  0  0  0
   -3.3320   -1.3480    0.0000 N   0  0  0  0  0  0  0  0  0  0  0  0
   -2.5070   -1.3480    0.0000 C   0  0  0  0  0  0  0  0  0  0  0  0
   -0.7846   -1.3951    0.0000 N   0  0  0  0  0  0  0  0  0  0  0  0
    0.0000   -1.6500    0.0000 C   0  0  0  0  0  0  0  0  0  0  0  0
    0.7145   -1.2375    0.0000 C   0  0  0  0  0  0  0  0  0  0  0  0
    0.7145   -0.4125    0.0000 C   0  0  0  0  0  0  0  0  0  0  0  0
    0.0000   -0.0000    0.0000 C   0  0  0  0  0  0  0  0  0  0  0  0
    0.0000    0.8250    0.0000 N   0  0  0  0  0  0  0  0  0  0  0  0
    0.7145    1.2375    0.0000 C   0  0  0  0  0  0  0  0  0  0  0  0
    1.4289    0.8250    0.0000 C   0  0  0  0  0  0  0  0  0  0  0  0
    1.4289   -0.0000    0.0000 C   0  0  0  0  0  0  0  0  0  0  0  0
    2.0420    1.3770    0.0000 C   0  0  2  0  0  0  0  0  0  0  0  0
    2.5270    0.7096    0.0000 C   0  0  0  0  0  0  0  0  0  0  0  0
    2.7565    1.7895    0.0000 N   0  0  0  0  0  0  0  0  0  0  0  0
    3.4710    1.3770    0.0000 C   0  0  0  0  0  0  0  0  0  0  0  0
    4.1854    1.7895    0.0000 C   0  0  0  0  0  0  0  0  0  0  0  0
    4.8999    2.2020    0.0000 C   0  0  0  0  0  0  0  0  0  0  0  0
    4.5979    1.0751    0.0000 C   0  0  0  0  0  0  0  0  0  0  0  0
    3.7729    2.5040    0.0000 F   0  0  0  0  0  0  0  0  0  0  0  0
    1.7065    2.1307    0.0000 C   0  0  0  0  0  0  0  0  0  0  0  0
    2.1190    2.8452    0.0000 O   0  0  0  0  0  0  0  0  0  0  0  0
    0.8860    2.0445    0.0000 N   0  0  0  0  0  0  0  0  0  0  0  0
    1.4289   -1.6500    0.0000 N   0  0  0  0  0  0  0  0  0  0  0  0
    1.4289   -2.4750    0.0000 C   0  0  0  0  0  0  0  0  0  0  0  0
    0.7145   -2.8875    0.0000 N   0  0  0  0  0  0  0  0  0  0  0  0
    0.0000   -2.4750    0.0000 C   0  0  0  0  0  0  0  0  0  0  0  0
  1  2  1  0  0  0  0
  2  3  1  0  0  0  0
  3  4  4  0  0  0  0
  4  5  1  0  0  0  0
  5  6  4  0  0  0  0
  6  7  4  0  0  0  0
  7  8  4  0  0  0  0
  8  9  1  0  0  0  0
  8 10  4  0  0  0  0
 10 11  4  0  0  0  0
  5 11  4  0  0  0  0
  4 12  4  0  0  0  0
 12 13  4  0  0  0  0
 13 14  4  0  0  0  0
 14 15  1  0  0  0  0
 15 16  4  0  0  0  0
 16 17  4  0  0  0  0
 17 18  4  0  0  0  0
 18 19  4  0  0  0  0
 19 20  4  0  0  0  0
 15 20  4  0  0  0  0
 21 19  1  0  0  0  0
 21 22  1  6  0  0  0
 21 23  1  1  0  0  0
 23 24  1  0  0  0  0
 24 25  1  0  0  0  0
 25 26  1  0  0  0  0
 25 27  1  0  0  0  0
 25 28  1  0  0  0  0
 21 29  1  0  0  0  0
 29 30  2  0  0  0  0
 29 31  1  0  0  0  0
 18 31  1  0  0  0  0
 14 32  4  0  0  0  0
 32 33  4  0  0  0  0
 33 34  4  0  0  0  0
 34 35  4  0  0  0  0
 13 35  4  0  0  0  0
  3 35  4  0  0  0  0
M  END
>  <CdId>
780

>  <Mol Weight>
475.532

>  <Formula>
C24H26FN9O

>  <Molecule ChEMBL ID>
CHEMBL4750385

>  <Molecule Max Phase>
None

>  <Molecular Weight>
475.53

>  <#RO5 Violations>
0

>  <AlogP>
3.18

>  <Compound Key>
4d; L-006021422

>  <Standard Type>
IC50

>  <Standard Relation>
'>'

>  <Standard Value>
50000.0

>  <Standard Units>
nM

$$$$

  Mrv2114 03112311372D          

 30 33  0  0  1  0            999 V2000
    2.1434   -3.7125    0.0000 C   0  0  0  0  0  0  0  0  0  0  0  0
    2.1434   -2.8875    0.0000 C   0  0  2  0  0  0  0  0  0  0  0  0
    1.4289   -2.4750    0.0000 C   0  0  0  0  0  0  0  0  0  0  0  0
    1.4289   -1.6500    0.0000 C   0  0  0  0  0  0  0  0  0  0  0  0
    2.1434   -1.2375    0.0000 O   0  0  0  0  0  0  0  0  0  0  0  0
    2.8579   -1.6500    0.0000 C   0  0  1  0  0  0  0  0  0  0  0  0
    3.5724   -1.2375    0.0000 C   0  0  0  0  0  0  0  0  0  0  0  0
    4.2868   -1.6500    0.0000 N   0  0  0  0  0  0  0  0  0  0  0  0
    5.0013   -1.2375    0.0000 C   0  0  0  0  0  0  0  0  0  0  0  0
    5.7158   -1.6500    0.0000 C   0  0  0  0  0  0  0  0  0  0  0  0
    6.4302   -1.2375    0.0000 C   0  0  0  0  0  0  0  0  0  0  0  0
    6.4302   -0.4125    0.0000 O   0  0  0  0  0  0  0  0  0  0  0  0
    7.1447   -1.6500    0.0000 N   0  0  0  0  0  0  0  0  0  0  0  0
    7.8592   -1.2375    0.0000 C   0  0  0  0  0  0  0  0  0  0  0  0
    8.5737   -1.6500    0.0000 C   0  0  0  0  0  0  0  0  0  0  0  0
    9.2881   -1.2375    0.0000 C   0  0  0  0  0  0  0  0  0  0  0  0
   10.0026   -1.6500    0.0000 C   0  0  0  0  0  0  0  0  0  0  0  0
   10.0026   -2.4750    0.0000 C   0  0  0  0  0  0  0  0  0  0  0  0
   10.7171   -2.8875    0.0000 F   0  0  0  0  0  0  0  0  0  0  0  0
    9.2881   -2.8875    0.0000 C   0  0  0  0  0  0  0  0  0  0  0  0
    8.5737   -2.4750    0.0000 C   0  0  0  0  0  0  0  0  0  0  0  0
    7.8592   -2.8875    0.0000 F   0  0  0  0  0  0  0  0  0  0  0  0
    5.7158   -2.4750    0.0000 C   0  0  0  0  0  0  0  0  0  0  0  0
    6.4302   -2.8875    0.0000 O   0  0  0  0  0  0  0  0  0  0  0  0
    5.0013   -2.8875    0.0000 C   0  0  0  0  0  0  0  0  0  0  0  0
    5.0013   -3.7125    0.0000 O   0  0  0  0  0  0  0  0  0  0  0  0
    4.2868   -2.4750    0.0000 C   0  0  0  0  0  0  0  0  0  0  0  0
    3.5724   -2.8875    0.0000 C   0  0  0  0  0  0  0  0  0  0  0  0
    3.5724   -3.7125    0.0000 O   0  0  0  0  0  0  0  0  0  0  0  0
    2.8579   -2.4750    0.0000 N   0  0  0  0  0  0  0  0  0  0  0  0
  2  1  1  6  0  0  0
  2  3  1  0  0  0  0
  3  4  1  0  0  0  0
  4  5  1  0  0  0  0
  6  5  1  0  0  0  0
  6  7  1  0  0  0  0
  7  8  1  0  0  0  0
  8  9  4  0  0  0  0
  9 10  4  0  0  0  0
 10 11  1  0  0  0  0
 11 12  2  0  0  0  0
 11 13  1  0  0  0  0
 13 14  1  0  0  0  0
 14 15  1  0  0  0  0
 15 16  4  0  0  0  0
 16 17  4  0  0  0  0
 17 18  4  0  0  0  0
 18 19  1  0  0  0  0
 18 20  4  0  0  0  0
 20 21  4  0  0  0  0
 15 21  4  0  0  0  0
 21 22  1  0  0  0  0
 10 23  4  0  0  0  0
 23 24  2  0  0  0  0
 23 25  4  0  0  0  0
 25 26  1  0  0  0  0
 25 27  4  0  0  0  0
  8 27  4  0  0  0  0
 27 28  1  0  0  0  0
 28 29  2  0  0  0  0
 28 30  1  0  0  0  0
  2 30  1  0  0  0  0
  6 30  1  1  0  0  0
M  END
>  <CdId>
781

>  <Mol Weight>
419.385

>  <Formula>
C20H19F2N3O5

>  <Molecule ChEMBL ID>
CHEMBL1229211

>  <Molecule Name>
DOLUTEGRAVIR

>  <Molecule Max Phase>
4

>  <Molecular Weight>
419.38

>  <#RO5 Violations>
0

>  <AlogP>
1.35

>  <Compound Key>
[14C]DTG

>  <Standard Type>
IC50

>  <Standard Relation>
'>'

>  <Standard Value>
100000.0

>  <Standard Units>
nM

$$$$

  Mrv2114 03112311372D          

 34 39  0  0  0  0            999 V2000
    6.3584    1.1270    0.0000 O   0  0  0  0  0  0  0  0  0  0  0  0
    5.9459    0.4125    0.0000 C   0  0  0  0  0  0  0  0  0  0  0  0
    6.3584   -0.3020    0.0000 O   0  0  0  0  0  0  0  0  0  0  0  0
    5.1209    0.4125    0.0000 C   0  0  0  0  0  0  0  0  0  0  0  0
    4.7084   -0.3020    0.0000 C   0  0  0  0  0  0  0  0  0  0  0  0
    3.8834   -0.3020    0.0000 C   0  0  0  0  0  0  0  0  0  0  0  0
    3.4709    0.4125    0.0000 C   0  0  0  0  0  0  0  0  0  0  0  0
    2.6459    0.4125    0.0000 N   0  0  0  0  0  0  0  0  0  0  0  0
    2.2334   -0.3020    0.0000 C   0  0  0  0  0  0  0  0  0  0  0  0
    1.4084   -0.3020    0.0000 C   0  0  0  0  0  0  0  0  0  0  0  0
    0.9959    0.4125    0.0000 C   0  0  0  0  0  0  0  0  0  0  0  0
    0.4125   -0.1709    0.0000 C   0  0  0  0  0  0  0  0  0  0  0  0
   -0.1709    0.4125    0.0000 C   0  0  0  0  0  0  0  0  0  0  0  0
   -0.9959    0.4125    0.0000 C   0  0  0  0  0  0  0  0  0  0  0  0
   -1.4808   -0.2549    0.0000 C   0  0  0  0  0  0  0  0  0  0  0  0
   -1.2258   -1.0396    0.0000 C   0  0  0  0  0  0  0  0  0  0  0  0
   -0.4189   -1.2111    0.0000 C   0  0  0  0  0  0  0  0  0  0  0  0
    0.1332   -0.5980    0.0000 Cl  0  0  0  0  0  0  0  0  0  0  0  0
   -0.1639   -1.9957    0.0000 C   0  0  0  0  0  0  0  0  0  0  0  0
   -0.7160   -2.6088    0.0000 C   0  0  0  0  0  0  0  0  0  0  0  0
   -1.5229   -2.4373    0.0000 C   0  0  0  0  0  0  0  0  0  0  0  0
   -1.7779   -1.6527    0.0000 C   0  0  0  0  0  0  0  0  0  0  0  0
   -2.5849   -1.4811    0.0000 Cl  0  0  0  0  0  0  0  0  0  0  0  0
   -2.2654   -0.0000    0.0000 N   0  0  0  0  0  0  0  0  0  0  0  0
   -2.2654    0.8250    0.0000 O   0  0  0  0  0  0  0  0  0  0  0  0
   -1.4808    1.0799    0.0000 C   0  0  0  0  0  0  0  0  0  0  0  0
   -1.2258    1.8646    0.0000 C   0  0  0  0  0  0  0  0  0  0  0  0
   -1.3974    2.6715    0.0000 C   0  0  0  0  0  0  0  0  0  0  0  0
   -0.6128    2.4166    0.0000 C   0  0  0  0  0  0  0  0  0  0  0  0
    0.4125    0.9959    0.0000 C   0  0  0  0  0  0  0  0  0  0  0  0
    1.4084    1.1270    0.0000 C   0  0  0  0  0  0  0  0  0  0  0  0
    2.2334    1.1270    0.0000 C   0  0  0  0  0  0  0  0  0  0  0  0
    3.8834    1.1270    0.0000 N   0  0  0  0  0  0  0  0  0  0  0  0
    4.7084    1.1270    0.0000 C   0  0  0  0  0  0  0  0  0  0  0  0
  1  2  2  0  0  0  0
  2  3  1  0  0  0  0
  2  4  1  0  0  0  0
  4  5  4  0  0  0  0
  5  6  4  0  0  0  0
  6  7  4  0  0  0  0
  7  8  1  0  0  0  0
  8  9  1  0  0  0  0
  9 10  1  0  0  0  0
 10 11  1  0  0  0  0
 11 12  1  0  0  0  0
 12 13  2  0  0  0  0
 13 14  1  0  0  0  0
 14 15  4  0  0  0  0
 15 16  1  0  0  0  0
 16 17  4  0  0  0  0
 17 18  1  0  0  0  0
 17 19  4  0  0  0  0
 19 20  4  0  0  0  0
 20 21  4  0  0  0  0
 21 22  4  0  0  0  0
 16 22  4  0  0  0  0
 22 23  1  0  0  0  0
 15 24  4  0  0  0  0
 24 25  4  0  0  0  0
 25 26  4  0  0  0  0
 14 26  4  0  0  0  0
 26 27  1  0  0  0  0
 27 28  1  0  0  0  0
 28 29  1  0  0  0  0
 27 29  1  0  0  0  0
 13 30  1  0  0  0  0
 11 30  1  0  0  0  0
 11 31  1  0  0  0  0
 31 32  1  0  0  0  0
  8 32  1  0  0  0  0
  7 33  4  0  0  0  0
 33 34  4  0  0  0  0
  4 34  4  0  0  0  0
M  END
>  <CdId>
782

>  <Mol Weight>
496.39

>  <Formula>
C26H23Cl2N3O3

>  <Molecule ChEMBL ID>
CHEMBL4875500

>  <Molecule Max Phase>
None

>  <Molecular Weight>
496.39

>  <#RO5 Violations>
1

>  <AlogP>
6.69

>  <Compound Key>
13

>  <Standard Type>
IC50

>  <Standard Relation>
'='

>  <Standard Value>
8200.0

>  <Standard Units>
nM

$$$$

  Mrv2114 03112311372D          

 38 44  0  0  0  0            999 V2000
    0.0000   -2.4750    0.0000 O   0  0  0  0  0  0  0  0  0  0  0  0
    0.0000   -1.6500    0.0000 C   0  0  0  0  0  0  0  0  0  0  0  0
   -0.7145   -1.2375    0.0000 O   0  0  0  0  0  0  0  0  0  0  0  0
    0.7145   -1.2375    0.0000 C   0  0  0  0  0  0  0  0  0  0  0  0
    0.7145   -0.4125    0.0000 C   0  0  0  0  0  0  0  0  0  0  0  0
    1.4289    0.0000    0.0000 C   0  0  0  0  0  0  0  0  0  0  0  0
    2.1434   -0.4125    0.0000 C   0  0  0  0  0  0  0  0  0  0  0  0
    2.8579    0.0000    0.0000 C   0  0  0  0  0  0  0  0  0  0  0  0
    3.5724   -0.4125    0.0000 C   0  0  0  0  0  0  0  0  0  0  0  0
    4.2868   -0.0000    0.0000 N   0  0  0  0  0  0  0  0  0  0  0  0
    4.2868    0.8250    0.0000 C   0  0  0  0  0  0  0  0  0  0  0  0
    5.0013    1.2375    0.0000 C   0  0  0  0  0  0  0  0  0  0  0  0
    5.7158    0.8250    0.0000 C   0  0  0  0  0  0  0  0  0  0  0  0
    5.9293    1.6219    0.0000 C   0  0  0  0  0  0  0  0  0  0  0  0
    6.7262    1.4084    0.0000 C   0  0  0  0  0  0  0  0  0  0  0  0
    7.4407    1.8209    0.0000 C   0  0  0  0  0  0  0  0  0  0  0  0
    7.5269    2.6413    0.0000 C   0  0  0  0  0  0  0  0  0  0  0  0
    6.9138    3.1934    0.0000 C   0  0  0  0  0  0  0  0  0  0  0  0
    6.1292    2.9384    0.0000 C   0  0  0  0  0  0  0  0  0  0  0  0
    5.9576    2.1315    0.0000 Cl  0  0  0  0  0  0  0  0  0  0  0  0
    5.5161    3.4905    0.0000 C   0  0  0  0  0  0  0  0  0  0  0  0
    5.6876    4.2974    0.0000 N   0  0  0  0  0  0  0  0  0  0  0  0
    6.4722    4.5524    0.0000 C   0  0  0  0  0  0  0  0  0  0  0  0
    7.0853    4.0003    0.0000 C   0  0  0  0  0  0  0  0  0  0  0  0
    7.8699    4.2553    0.0000 Cl  0  0  0  0  0  0  0  0  0  0  0  0
    8.3339    2.8129    0.0000 N   0  0  0  0  0  0  0  0  0  0  0  0
    8.7464    2.0984    0.0000 O   0  0  0  0  0  0  0  0  0  0  0  0
    8.1943    1.4853    0.0000 C   0  0  0  0  0  0  0  0  0  0  0  0
    8.3659    0.6783    0.0000 C   0  0  0  0  0  0  0  0  0  0  0  0
    8.9179    0.0652    0.0000 C   0  0  0  0  0  0  0  0  0  0  0  0
    8.1109   -0.1063    0.0000 C   0  0  0  0  0  0  0  0  0  0  0  0
    6.5127    0.6115    0.0000 C   0  0  0  0  0  0  0  0  0  0  0  0
    5.7158   -0.0000    0.0000 C   0  0  0  0  0  0  0  0  0  0  0  0
    5.0013   -0.4125    0.0000 C   0  0  0  0  0  0  0  0  0  0  0  0
    3.5724   -1.2375    0.0000 C   0  0  0  0  0  0  0  0  0  0  0  0
    2.8579   -1.6500    0.0000 C   0  0  0  0  0  0  0  0  0  0  0  0
    2.1434   -1.2375    0.0000 C   0  0  0  0  0  0  0  0  0  0  0  0
    1.4289   -1.6500    0.0000 N   0  0  0  0  0  0  0  0  0  0  0  0
  1  2  2  0  0  0  0
  2  3  1  0  0  0  0
  2  4  1  0  0  0  0
  4  5  4  0  0  0  0
  5  6  4  0  0  0  0
  6  7  4  0  0  0  0
  7  8  4  0  0  0  0
  8  9  4  0  0  0  0
  9 10  1  0  0  0  0
 10 11  1  0  0  0  0
 11 12  1  0  0  0  0
 12 13  1  0  0  0  0
 13 14  1  0  0  0  0
 14 15  2  0  0  0  0
 15 16  1  0  0  0  0
 16 17  4  0  0  0  0
 17 18  1  0  0  0  0
 18 19  4  0  0  0  0
 19 20  1  0  0  0  0
 19 21  4  0  0  0  0
 21 22  4  0  0  0  0
 22 23  4  0  0  0  0
 23 24  4  0  0  0  0
 18 24  4  0  0  0  0
 24 25  1  0  0  0  0
 17 26  4  0  0  0  0
 26 27  4  0  0  0  0
 27 28  4  0  0  0  0
 16 28  4  0  0  0  0
 28 29  1  0  0  0  0
 29 30  1  0  0  0  0
 30 31  1  0  0  0  0
 29 31  1  0  0  0  0
 15 32  1  0  0  0  0
 13 32  1  0  0  0  0
 13 33  1  0  0  0  0
 33 34  1  0  0  0  0
 10 34  1  0  0  0  0
  9 35  4  0  0  0  0
 35 36  4  0  0  0  0
 36 37  4  0  0  0  0
  7 37  4  0  0  0  0
 37 38  4  0  0  0  0
  4 38  4  0  0  0  0
M  END
>  <CdId>
783

>  <Mol Weight>
547.44

>  <Formula>
C29H24Cl2N4O3

>  <Molecule ChEMBL ID>
CHEMBL4858615

>  <Molecule Max Phase>
None

>  <Molecular Weight>
547.44

>  <#RO5 Violations>
2

>  <AlogP>
7.24

>  <Compound Key>
18

>  <Standard Type>
IC50

>  <Standard Relation>
'='

>  <Standard Value>
8500.0

>  <Standard Units>
nM

$$$$

  Mrv2114 03112311372D          

 44 47  0  0  1  0            999 V2000
   -1.2518   -3.8045    0.0000 C   0  0  0  0  0  0  0  0  0  0  0  0
   -1.7845   -3.1744    0.0000 C   0  0  1  0  0  0  0  0  0  0  0  0
   -2.3171   -2.5444    0.0000 O   0  0  0  0  0  0  0  0  0  0  0  0
   -2.4145   -3.7071    0.0000 C   0  0  0  0  0  0  0  0  0  0  0  0
   -3.1908   -3.4277    0.0000 S   0  0  0  0  0  0  0  0  0  0  0  0
   -3.9670   -3.1484    0.0000 C   0  0  0  0  0  0  0  0  0  0  0  0
   -3.4701   -4.2040    0.0000 O   0  0  0  0  0  0  0  0  0  0  0  0
   -2.9115   -2.6515    0.0000 O   0  0  0  0  0  0  0  0  0  0  0  0
   -1.1544   -2.6418    0.0000 C   0  0  0  0  0  0  0  0  0  0  0  0
   -1.3007   -1.8299    0.0000 O   0  0  0  0  0  0  0  0  0  0  0  0
   -0.3781   -2.9211    0.0000 N   0  0  0  0  0  0  0  0  0  0  0  0
    0.2519   -2.3885    0.0000 C   0  0  2  0  0  0  0  0  0  0  0  0
    0.1913   -1.5657    0.0000 C   0  0  0  0  0  0  0  0  0  0  0  0
    0.9551   -1.2539    0.0000 C   0  0  0  0  0  0  0  0  0  0  0  0
    1.4877   -1.8839    0.0000 C   0  0  1  0  0  0  0  0  0  0  0  0
    1.8467   -1.1411    0.0000 S   0  0  0  0  0  0  0  0  0  0  0  0
    2.5737   -0.7511    0.0000 O   0  0  0  0  0  0  0  0  0  0  0  0
    1.1038   -0.7822    0.0000 O   0  0  0  0  0  0  0  0  0  0  0  0
    2.2056   -0.3983    0.0000 C   0  0  0  0  0  0  0  0  0  0  0  0
    1.7417    0.2840    0.0000 C   0  0  0  0  0  0  0  0  0  0  0  0
    2.1007    1.0268    0.0000 C   0  0  0  0  0  0  0  0  0  0  0  0
    2.9234    1.0874    0.0000 C   0  0  0  0  0  0  0  0  0  0  0  0
    3.2824    1.8302    0.0000 F   0  0  0  0  0  0  0  0  0  0  0  0
    3.3873    0.4051    0.0000 C   0  0  0  0  0  0  0  0  0  0  0  0
    3.0284   -0.3377    0.0000 C   0  0  0  0  0  0  0  0  0  0  0  0
    2.3123   -1.9097    0.0000 C   0  0  0  0  0  0  0  0  0  0  0  0
    2.7469   -1.2084    0.0000 C   0  0  0  0  0  0  0  0  0  0  0  0
    3.5715   -1.2342    0.0000 C   0  0  0  0  0  0  0  0  0  0  0  0
    3.9615   -1.9612    0.0000 C   0  0  0  0  0  0  0  0  0  0  0  0
    4.7861   -1.9870    0.0000 C   0  0  0  0  0  0  0  0  0  0  0  0
    4.8119   -1.1624    0.0000 F   0  0  0  0  0  0  0  0  0  0  0  0
    4.7603   -2.8116    0.0000 C   0  0  0  0  0  0  0  0  0  0  0  0
    4.7346   -3.6362    0.0000 F   0  0  0  0  0  0  0  0  0  0  0  0
    3.9358   -2.7858    0.0000 F   0  0  0  0  0  0  0  0  0  0  0  0
    5.5849   -2.8373    0.0000 F   0  0  0  0  0  0  0  0  0  0  0  0
    5.6107   -2.0127    0.0000 C   0  0  0  0  0  0  0  0  0  0  0  0
    6.4353   -2.0385    0.0000 F   0  0  0  0  0  0  0  0  0  0  0  0
    6.0746   -2.6950    0.0000 F   0  0  0  0  0  0  0  0  0  0  0  0
    5.6365   -1.1881    0.0000 F   0  0  0  0  0  0  0  0  0  0  0  0
    3.5269   -2.6624    0.0000 C   0  0  0  0  0  0  0  0  0  0  0  0
    2.7023   -2.6367    0.0000 C   0  0  0  0  0  0  0  0  0  0  0  0
    2.2677   -3.3379    0.0000 C   0  0  0  0  0  0  0  0  0  0  0  0
    1.4431   -3.3122    0.0000 C   0  0  0  0  0  0  0  0  0  0  0  0
    1.0531   -2.5852    0.0000 C   0  0  1  0  0  0  0  0  0  0  0  0
  2  1  1  0  0  0  0
  2  3  1  6  0  0  0
  2  4  1  1  0  0  0
  4  5  1  0  0  0  0
  5  6  1  0  0  0  0
  5  7  2  0  0  0  0
  5  8  2  0  0  0  0
  2  9  1  0  0  0  0
  9 10  2  0  0  0  0
  9 11  1  0  0  0  0
 12 11  1  6  0  0  0
 12 13  1  0  0  0  0
 13 14  1  0  0  0  0
 15 14  1  0  0  0  0
 15 16  1  6  0  0  0
 16 17  2  0  0  0  0
 16 18  2  0  0  0  0
 16 19  1  0  0  0  0
 19 20  4  0  0  0  0
 20 21  4  0  0  0  0
 21 22  4  0  0  0  0
 22 23  1  0  0  0  0
 22 24  4  0  0  0  0
 24 25  4  0  0  0  0
 19 25  4  0  0  0  0
 15 26  1  0  0  0  0
 26 27  4  0  0  0  0
 27 28  4  0  0  0  0
 28 29  4  0  0  0  0
 29 30  1  0  0  0  0
 30 31  1  0  0  0  0
 30 32  1  0  0  0  0
 32 33  1  0  0  0  0
 32 34  1  0  0  0  0
 32 35  1  0  0  0  0
 30 36  1  0  0  0  0
 36 37  1  0  0  0  0
 36 38  1  0  0  0  0
 36 39  1  0  0  0  0
 29 40  4  0  0  0  0
 40 41  4  0  0  0  0
 26 41  4  0  0  0  0
 41 42  1  0  0  0  0
 42 43  1  0  0  0  0
 44 43  1  1  0  0  0
 44 12  1  0  0  0  0
 44 15  1  0  0  0  0
M  END
>  <CdId>
784

>  <Mol Weight>
677.62

>  <Formula>
C27H27F8NO6S2

>  <Molecule ChEMBL ID>
CHEMBL4779994

>  <Molecule Max Phase>
None

>  <Molecular Weight>
677.63

>  <#RO5 Violations>
1

>  <AlogP>
4.42

>  <Compound Key>
3e

>  <Standard Type>
IC50

>  <Standard Relation>
'='

>  <Standard Value>
5000.0

>  <Standard Units>
nM

$$$$

  Mrv2114 03112311372D          

 39 45  0  0  1  0            999 V2000
   -2.9852   -4.0775    0.0000 C   0  0  0  0  0  0  0  0  0  0  0  0
   -2.1782   -3.9059    0.0000 C   0  0  1  0  0  0  0  0  0  0  0  0
   -1.9233   -3.1213    0.0000 C   0  0  0  0  0  0  0  0  0  0  0  0
   -1.1163   -2.9498    0.0000 C   0  0  0  0  0  0  0  0  0  0  0  0
   -0.5643   -3.5629    0.0000 C   0  0  2  0  0  0  0  0  0  0  0  0
    0.2427   -3.3913    0.0000 C   0  0  0  0  0  0  0  0  0  0  0  0
    0.4976   -2.6067    0.0000 N   0  0  0  0  0  0  0  0  0  0  0  0
    0.0127   -1.9393    0.0000 C   0  0  0  0  0  0  0  0  0  0  0  0
   -0.8123   -1.9393    0.0000 N   0  0  0  0  0  0  0  0  0  0  0  0
   -1.2248   -2.6538    0.0000 C   0  0  0  0  0  0  0  0  0  0  0  0
   -2.0498   -2.6538    0.0000 C   0  0  0  0  0  0  0  0  0  0  0  0
   -2.4623   -1.9393    0.0000 O   0  0  0  0  0  0  0  0  0  0  0  0
   -2.0498   -1.2248    0.0000 C   0  0  2  0  0  0  0  0  0  0  0  0
   -2.3048   -0.4402    0.0000 C   0  0  0  0  0  0  0  0  0  0  0  0
   -1.6373    0.0447    0.0000 C   0  0  0  0  0  0  0  0  0  0  0  0
   -0.9699   -0.4402    0.0000 C   0  0  0  0  0  0  0  0  0  0  0  0
   -1.2248   -1.2248    0.0000 C   0  0  1  0  0  0  0  0  0  0  0  0
    0.4976   -1.2718    0.0000 N   0  0  0  0  0  0  0  0  0  0  0  0
    1.2822   -1.5268    0.0000 C   0  0  0  0  0  0  0  0  0  0  0  0
    1.9967   -1.1143    0.0000 C   0  0  0  0  0  0  0  0  0  0  0  0
    2.7112   -1.5268    0.0000 C   0  0  0  0  0  0  0  0  0  0  0  0
    3.4256   -1.1143    0.0000 C   0  0  0  0  0  0  0  0  0  0  0  0
    3.5119   -0.2938    0.0000 N   0  0  0  0  0  0  0  0  0  0  0  0
    4.3188   -0.1223    0.0000 O   0  0  0  0  0  0  0  0  0  0  0  0
    4.7313   -0.8368    0.0000 C   0  0  0  0  0  0  0  0  0  0  0  0
    5.5518   -0.9230    0.0000 O   0  0  0  0  0  0  0  0  0  0  0  0
    4.1793   -1.4498    0.0000 N   0  0  0  0  0  0  0  0  0  0  0  0
    2.7112   -2.3518    0.0000 N   0  0  0  0  0  0  0  0  0  0  0  0
    1.9967   -2.7643    0.0000 C   0  0  0  0  0  0  0  0  0  0  0  0
    1.9967   -3.5893    0.0000 C   0  0  0  0  0  0  0  0  0  0  0  0
    2.7112   -4.0018    0.0000 C   0  0  0  0  0  0  0  0  0  0  0  0
    2.7112   -4.8268    0.0000 N   0  0  0  0  0  0  0  0  0  0  0  0
    1.9967   -5.2393    0.0000 C   0  0  0  0  0  0  0  0  0  0  0  0
    1.2822   -4.8268    0.0000 C   0  0  0  0  0  0  0  0  0  0  0  0
    0.5678   -5.2393    0.0000 Cl  0  0  0  0  0  0  0  0  0  0  0  0
    1.2822   -4.0018    0.0000 C   0  0  0  0  0  0  0  0  0  0  0  0
    1.2822   -2.3518    0.0000 C   0  0  0  0  0  0  0  0  0  0  0  0
   -0.8192   -4.3475    0.0000 C   0  0  0  0  0  0  0  0  0  0  0  0
   -1.6262   -4.5190    0.0000 C   0  0  0  0  0  0  0  0  0  0  0  0
  2  1  1  1  0  0  0
  2  3  1  0  0  0  0
  3  4  1  0  0  0  0
  5  4  1  0  0  0  0
  5  6  1  6  0  0  0
  6  7  1  0  0  0  0
  7  8  4  0  0  0  0
  8  9  1  0  0  0  0
  9 10  1  0  0  0  0
 10 11  1  0  0  0  0
 11 12  1  0  0  0  0
 13 12  1  0  0  0  0
 13 14  1  6  0  0  0
 14 15  1  0  0  0  0
 15 16  1  0  0  0  0
 17 16  1  1  0  0  0
 13 17  1  0  0  0  0
 17  9  1  0  0  0  0
  8 18  4  0  0  0  0
 18 19  4  0  0  0  0
 19 20  4  0  0  0  0
 20 21  4  0  0  0  0
 21 22  1  0  0  0  0
 22 23  4  0  0  0  0
 23 24  4  0  0  0  0
 24 25  4  0  0  0  0
 25 26  2  0  0  0  0
 25 27  4  0  0  0  0
 22 27  4  0  0  0  0
 21 28  4  0  0  0  0
 28 29  4  0  0  0  0
 29 30  1  0  0  0  0
 30 31  4  0  0  0  0
 31 32  4  0  0  0  0
 32 33  4  0  0  0  0
 33 34  4  0  0  0  0
 34 35  1  0  0  0  0
 34 36  4  0  0  0  0
 30 36  4  0  0  0  0
 29 37  4  0  0  0  0
 19 37  4  0  0  0  0
  7 37  4  0  0  0  0
  5 38  1  0  0  0  0
 38 39  1  0  0  0  0
  2 39  1  0  0  0  0
M  STY  1   1 DAT
M  SAL   1  1  27
M  SDT   1 MRV_IMPLICIT_H                                        
M  SDD   1     0.0000    0.0000    DR    ALL  0       0  
M  SED   1 IMPL_H1
M  END
>  <CdId>
785

>  <Mol Weight>
550.06

>  <Formula>
C28H32ClN7O3

>  <Molecule ChEMBL ID>
CHEMBL3647052

>  <Molecule Max Phase>
None

>  <Molecular Weight>
550.06

>  <#RO5 Violations>
2

>  <AlogP>
5.07

>  <Compound Key>
56; MK-4688

>  <Standard Type>
IC50

>  <Standard Relation>
'='

>  <Standard Value>
800.0

>  <Standard Units>
nM

$$$$

  Mrv2114 03112311372D          

 41 44  0  0  1  0            999 V2000
    5.0013   -2.8875    0.0000 C   0  0  0  0  0  0  0  0  0  0  0  0
    5.0013   -3.7125    0.0000 C   0  0  0  0  0  0  0  0  0  0  0  0
    5.7158   -4.1250    0.0000 N   0  0  0  0  0  0  0  0  0  0  0  0
    5.7158   -4.9500    0.0000 C   0  0  0  0  0  0  0  0  0  0  0  0
    6.4302   -5.3625    0.0000 C   0  0  0  0  0  0  0  0  0  0  0  0
    5.0013   -5.3625    0.0000 C   0  0  0  0  0  0  0  0  0  0  0  0
    5.0013   -6.1875    0.0000 C   0  0  2  0  0  0  0  0  0  0  0  0
    4.2868   -6.6000    0.0000 O   0  0  0  0  0  0  0  0  0  0  0  0
    4.2868   -7.4250    0.0000 C   0  0  0  0  0  0  0  0  0  0  0  0
    4.2868   -8.2500    0.0000 C   0  0  0  0  0  0  0  0  0  0  0  0
    5.1118   -7.4250    0.0000 C   0  0  0  0  0  0  0  0  0  0  0  0
    3.4618   -7.4250    0.0000 C   0  0  0  0  0  0  0  0  0  0  0  0
    5.7158   -6.6000    0.0000 C   0  0  0  0  0  0  0  0  0  0  0  0
    5.7158   -7.4250    0.0000 O   0  0  0  0  0  0  0  0  0  0  0  0
    6.4302   -6.1875    0.0000 O   0  0  0  0  0  0  0  0  0  0  0  0
    4.2868   -4.9500    0.0000 C   0  0  0  0  0  0  0  0  0  0  0  0
    3.5724   -5.3625    0.0000 N   0  0  0  0  0  0  0  0  0  0  0  0
    3.5724   -6.1875    0.0000 C   0  0  0  0  0  0  0  0  0  0  0  0
    2.8579   -6.6000    0.0000 C   0  0  0  0  0  0  0  0  0  0  0  0
    2.1434   -6.1875    0.0000 C   0  0  0  0  0  0  0  0  0  0  0  0
    1.8612   -6.9627    0.0000 C   0  0  0  0  0  0  0  0  0  0  0  0
    1.3309   -6.0442    0.0000 C   0  0  0  0  0  0  0  0  0  0  0  0
    2.1434   -5.3625    0.0000 C   0  0  0  0  0  0  0  0  0  0  0  0
    2.8579   -4.9500    0.0000 C   0  0  0  0  0  0  0  0  0  0  0  0
    4.2868   -4.1250    0.0000 C   0  0  0  0  0  0  0  0  0  0  0  0
    3.5724   -3.7125    0.0000 C   0  0  0  0  0  0  0  0  0  0  0  0
    2.8579   -4.1250    0.0000 C   0  0  0  0  0  0  0  0  0  0  0  0
    2.1434   -3.7125    0.0000 C   0  0  0  0  0  0  0  0  0  0  0  0
    2.1434   -2.8875    0.0000 C   0  0  0  0  0  0  0  0  0  0  0  0
    1.4289   -2.4750    0.0000 O   0  0  0  0  0  0  0  0  0  0  0  0
    1.4289   -1.6500    0.0000 C   0  0  0  0  0  0  0  0  0  0  0  0
    0.7145   -1.2375    0.0000 C   0  0  0  0  0  0  0  0  0  0  0  0
    0.7145   -0.4125    0.0000 C   0  0  0  0  0  0  0  0  0  0  0  0
    0.0000    0.0000    0.0000 C   0  0  0  0  0  0  0  0  0  0  0  0
    0.0000    0.8250    0.0000 C   0  0  0  0  0  0  0  0  0  0  0  0
    0.7145    1.2375    0.0000 C   0  0  0  0  0  0  0  0  0  0  0  0
    0.7145    2.0625    0.0000 F   0  0  0  0  0  0  0  0  0  0  0  0
    1.4289    0.8250    0.0000 C   0  0  0  0  0  0  0  0  0  0  0  0
    1.4289    0.0000    0.0000 C   0  0  0  0  0  0  0  0  0  0  0  0
    2.8579   -2.4750    0.0000 C   0  0  0  0  0  0  0  0  0  0  0  0
    3.5724   -2.8875    0.0000 C   0  0  0  0  0  0  0  0  0  0  0  0
  1  2  1  0  0  0  0
  2  3  4  0  0  0  0
  3  4  4  0  0  0  0
  4  5  1  0  0  0  0
  4  6  4  0  0  0  0
  7  6  1  0  0  0  0
  7  8  1  1  0  0  0
  8  9  1  0  0  0  0
  9 10  1  0  0  0  0
  9 11  1  0  0  0  0
  9 12  1  0  0  0  0
  7 13  1  0  0  0  0
 13 14  2  0  0  0  0
 13 15  1  0  0  0  0
  6 16  4  0  0  0  0
 16 17  1  0  0  0  0
 17 18  1  0  0  0  0
 18 19  1  0  0  0  0
 19 20  1  0  0  0  0
 20 21  1  0  0  0  0
 20 22  1  0  0  0  0
 20 23  1  0  0  0  0
 23 24  1  0  0  0  0
 17 24  1  0  0  0  0
 16 25  4  0  0  0  0
  2 25  4  0  0  0  0
 25 26  1  0  0  0  0
 26 27  4  0  0  0  0
 27 28  4  0  0  0  0
 28 29  4  0  0  0  0
 29 30  1  0  0  0  0
 30 31  1  0  0  0  0
 31 32  1  0  0  0  0
 32 33  1  0  0  0  0
 33 34  4  0  0  0  0
 34 35  4  0  0  0  0
 35 36  4  0  0  0  0
 36 37  1  0  0  0  0
 36 38  4  0  0  0  0
 38 39  4  0  0  0  0
 33 39  4  0  0  0  0
 29 40  4  0  0  0  0
 40 41  4  0  0  0  0
 26 41  4  0  0  0  0
M  END
>  <CdId>
786

>  <Mol Weight>
562.726

>  <Formula>
C34H43FN2O4

>  <Molecule ChEMBL ID>
CHEMBL5093378

>  <Molecule Max Phase>
None

>  <Molecular Weight>
562.73

>  <#RO5 Violations>
2

>  <AlogP>
7.69

>  <Compound Key>
29

>  <Standard Type>
IC50

>  <Standard Relation>
'>='

>  <Standard Value>
24300.0

>  <Standard Units>
nM

$$$$

  Mrv2114 03112311372D          

 27 30  0  0  0  0            999 V2000
    0.8838   -2.1500    0.0000 C   0  0  0  0  0  0  0  0  0  0  0  0
    1.1387   -1.3654    0.0000 N   0  0  0  0  0  0  0  0  0  0  0  0
    0.6538   -0.6979    0.0000 C   0  0  0  0  0  0  0  0  0  0  0  0
   -0.1712   -0.6979    0.0000 O   0  0  0  0  0  0  0  0  0  0  0  0
    1.1387   -0.0305    0.0000 N   0  0  0  0  0  0  0  0  0  0  0  0
    0.8838    0.7541    0.0000 C   0  0  0  0  0  0  0  0  0  0  0  0
    0.0768    0.9256    0.0000 C   0  0  0  0  0  0  0  0  0  0  0  0
   -0.4752    0.3126    0.0000 O   0  0  0  0  0  0  0  0  0  0  0  0
   -0.1781    1.7103    0.0000 N   0  0  0  0  0  0  0  0  0  0  0  0
   -0.9132    2.0848    0.0000 C   0  0  0  0  0  0  0  0  0  0  0  0
   -0.5387    2.8199    0.0000 C   0  0  0  0  0  0  0  0  0  0  0  0
    0.1964    2.4453    0.0000 C   0  0  0  0  0  0  0  0  0  0  0  0
    1.9233   -0.2854    0.0000 C   0  0  0  0  0  0  0  0  0  0  0  0
    2.6378    0.1271    0.0000 C   0  0  0  0  0  0  0  0  0  0  0  0
    3.3523   -0.2854    0.0000 C   0  0  0  0  0  0  0  0  0  0  0  0
    4.0668    0.1271    0.0000 C   0  0  0  0  0  0  0  0  0  0  0  0
    4.1530    0.9475    0.0000 C   0  0  0  0  0  0  0  0  0  0  0  0
    4.9600    1.1191    0.0000 C   0  0  0  0  0  0  0  0  0  0  0  0
    5.3725    0.4046    0.0000 C   0  0  0  0  0  0  0  0  0  0  0  0
    6.1929    0.3184    0.0000 C   0  0  0  0  0  0  0  0  0  0  0  0
    7.0134    0.2321    0.0000 F   0  0  0  0  0  0  0  0  0  0  0  0
    6.1067   -0.5021    0.0000 F   0  0  0  0  0  0  0  0  0  0  0  0
    6.2792    1.1388    0.0000 F   0  0  0  0  0  0  0  0  0  0  0  0
    4.8204   -0.2085    0.0000 S   0  0  0  0  0  0  0  0  0  0  0  0
    3.3523   -1.1104    0.0000 C   0  0  0  0  0  0  0  0  0  0  0  0
    2.6378   -1.5229    0.0000 N   0  0  0  0  0  0  0  0  0  0  0  0
    1.9233   -1.1104    0.0000 C   0  0  0  0  0  0  0  0  0  0  0  0
  1  2  1  0  0  0  0
  2  3  4  0  0  0  0
  3  4  2  0  0  0  0
  3  5  4  0  0  0  0
  5  6  1  0  0  0  0
  6  7  1  0  0  0  0
  7  8  2  0  0  0  0
  7  9  1  0  0  0  0
  9 10  1  0  0  0  0
 10 11  1  0  0  0  0
 11 12  1  0  0  0  0
  9 12  1  0  0  0  0
  5 13  4  0  0  0  0
 13 14  4  0  0  0  0
 14 15  4  0  0  0  0
 15 16  1  0  0  0  0
 16 17  4  0  0  0  0
 17 18  4  0  0  0  0
 18 19  4  0  0  0  0
 19 20  1  0  0  0  0
 20 21  1  0  0  0  0
 20 22  1  0  0  0  0
 20 23  1  0  0  0  0
 19 24  4  0  0  0  0
 16 24  4  0  0  0  0
 15 25  4  0  0  0  0
 25 26  4  0  0  0  0
 26 27  4  0  0  0  0
 13 27  4  0  0  0  0
  2 27  4  0  0  0  0
M  END
>  <CdId>
787

>  <Mol Weight>
396.39

>  <Formula>
C17H15F3N4O2S

>  <Molecule ChEMBL ID>
CHEMBL4779889

>  <Molecule Max Phase>
None

>  <Molecular Weight>
396.39

>  <#RO5 Violations>
0

>  <AlogP>
2.71

>  <Compound Key>
12

>  <Standard Type>
IC50

>  <Standard Relation>
'<'

>  <Standard Value>
50000.0

>  <Standard Units>
nM

$$$$

  Mrv2114 03112311372D          

 25 27  0  0  1  0            999 V2000
    2.0367   -3.7741    0.0000 N   0  0  0  0  0  0  0  0  0  0  0  0
    2.7512   -4.1866    0.0000 C   0  0  0  0  0  0  0  0  0  0  0  0
    3.4656   -3.7741    0.0000 O   0  0  0  0  0  0  0  0  0  0  0  0
    2.7512   -5.0116    0.0000 C   0  0  2  0  0  0  0  0  0  0  0  0
    2.0837   -5.4965    0.0000 C   0  0  0  0  0  0  0  0  0  0  0  0
    2.3387   -6.2812    0.0000 C   0  0  2  0  0  0  0  0  0  0  0  0
    1.8538   -6.9486    0.0000 F   0  0  0  0  0  0  0  0  0  0  0  0
    3.1637   -6.2812    0.0000 C   0  0  0  0  0  0  0  0  0  0  0  0
    3.4186   -5.4965    0.0000 N   0  0  0  0  0  0  0  0  0  0  0  0
    4.2032   -5.2416    0.0000 C   0  0  0  0  0  0  0  0  0  0  0  0
    4.8163   -5.7936    0.0000 C   0  0  0  0  0  0  0  0  0  0  0  0
    5.6010   -5.5387    0.0000 C   0  0  0  0  0  0  0  0  0  0  0  0
    6.2140   -6.0907    0.0000 C   0  0  0  0  0  0  0  0  0  0  0  0
    6.0425   -6.8977    0.0000 C   0  0  0  0  0  0  0  0  0  0  0  0
    6.6556   -7.4497    0.0000 O   0  0  0  0  0  0  0  0  0  0  0  0
    7.4402   -7.1948    0.0000 C   0  0  0  0  0  0  0  0  0  0  0  0
    8.0533   -7.7468    0.0000 C   0  0  0  0  0  0  0  0  0  0  0  0
    8.8380   -7.4919    0.0000 C   0  0  0  0  0  0  0  0  0  0  0  0
    9.4510   -8.0439    0.0000 C   0  0  0  0  0  0  0  0  0  0  0  0
    9.2795   -8.8509    0.0000 C   0  0  0  0  0  0  0  0  0  0  0  0
    8.4949   -9.1058    0.0000 C   0  0  0  0  0  0  0  0  0  0  0  0
    8.3234   -9.9128    0.0000 F   0  0  0  0  0  0  0  0  0  0  0  0
    7.8818   -8.5538    0.0000 C   0  0  0  0  0  0  0  0  0  0  0  0
    5.2579   -7.1526    0.0000 C   0  0  0  0  0  0  0  0  0  0  0  0
    4.6448   -6.6006    0.0000 C   0  0  0  0  0  0  0  0  0  0  0  0
  1  2  1  0  0  0  0
  2  3  2  0  0  0  0
  4  2  1  1  0  0  0
  4  5  1  0  0  0  0
  6  5  1  0  0  0  0
  6  7  1  1  0  0  0
  6  8  1  0  0  0  0
  8  9  1  0  0  0  0
  4  9  1  0  0  0  0
  9 10  1  0  0  0  0
 10 11  1  0  0  0  0
 11 12  4  0  0  0  0
 12 13  4  0  0  0  0
 13 14  4  0  0  0  0
 14 15  1  0  0  0  0
 15 16  1  0  0  0  0
 16 17  1  0  0  0  0
 17 18  4  0  0  0  0
 18 19  4  0  0  0  0
 19 20  4  0  0  0  0
 20 21  4  0  0  0  0
 21 22  1  0  0  0  0
 21 23  4  0  0  0  0
 17 23  4  0  0  0  0
 14 24  4  0  0  0  0
 24 25  4  0  0  0  0
 11 25  4  0  0  0  0
M  END
>  <CdId>
788

>  <Mol Weight>
346.378

>  <Formula>
C19H20F2N2O2

>  <Molecule ChEMBL ID>
CHEMBL5083414

>  <Molecule Max Phase>
None

>  <Molecular Weight>
346.38

>  <#RO5 Violations>
0

>  <AlogP>
2.8

>  <Compound Key>
D5

>  <Standard Type>
IC50

>  <Standard Relation>
'>'

>  <Standard Value>
29000.0

>  <Standard Units>
nM

$$$$

  Mrv2114 03112311372D          

 27 29  0  0  0  0            999 V2000
    2.0367   -0.4741    0.0000 C   0  0  0  0  0  0  0  0  0  0  0  0
    2.0367   -1.2991    0.0000 C   0  0  0  0  0  0  0  0  0  0  0  0
    2.7041   -1.7840    0.0000 C   0  0  0  0  0  0  0  0  0  0  0  0
    3.4888   -1.5291    0.0000 C   0  0  0  0  0  0  0  0  0  0  0  0
    4.1019   -2.0811    0.0000 C   0  0  0  0  0  0  0  0  0  0  0  0
    4.8865   -1.8262    0.0000 C   0  0  0  0  0  0  0  0  0  0  0  0
    5.4996   -2.3782    0.0000 C   0  0  0  0  0  0  0  0  0  0  0  0
    5.3281   -3.1852    0.0000 C   0  0  0  0  0  0  0  0  0  0  0  0
    5.9411   -3.7372    0.0000 C   0  0  0  0  0  0  0  0  0  0  0  0
    6.5542   -4.2893    0.0000 F   0  0  0  0  0  0  0  0  0  0  0  0
    6.4932   -3.1241    0.0000 F   0  0  0  0  0  0  0  0  0  0  0  0
    5.3891   -4.3503    0.0000 F   0  0  0  0  0  0  0  0  0  0  0  0
    4.5434   -3.4401    0.0000 N   0  0  0  0  0  0  0  0  0  0  0  0
    3.9303   -2.8881    0.0000 C   0  0  0  0  0  0  0  0  0  0  0  0
    2.4492   -2.5687    0.0000 C   0  0  0  0  0  0  0  0  0  0  0  0
    1.6242   -2.5687    0.0000 N   0  0  0  0  0  0  0  0  0  0  0  0
    1.3693   -1.7840    0.0000 C   0  0  0  0  0  0  0  0  0  0  0  0
    0.5846   -1.5291    0.0000 C   0  0  0  0  0  0  0  0  0  0  0  0
   -0.0284   -2.0811    0.0000 O   0  0  0  0  0  0  0  0  0  0  0  0
    0.4131   -0.7221    0.0000 N   0  0  0  0  0  0  0  0  0  0  0  0
   -0.3715   -0.4672    0.0000 C   0  0  0  0  0  0  0  0  0  0  0  0
   -0.9846   -1.0192    0.0000 C   0  0  0  0  0  0  0  0  0  0  0  0
   -0.5430    0.3398    0.0000 C   0  0  0  0  0  0  0  0  0  0  0  0
   -1.2967    0.6753    0.0000 C   0  0  0  0  0  0  0  0  0  0  0  0
   -1.2105    1.4958    0.0000 N   0  0  0  0  0  0  0  0  0  0  0  0
   -0.4035    1.6674    0.0000 N   0  0  0  0  0  0  0  0  0  0  0  0
    0.0090    0.9529    0.0000 C   0  0  0  0  0  0  0  0  0  0  0  0
  1  2  1  0  0  0  0
  2  3  4  0  0  0  0
  3  4  1  0  0  0  0
  4  5  1  0  0  0  0
  5  6  4  0  0  0  0
  6  7  4  0  0  0  0
  7  8  4  0  0  0  0
  8  9  1  0  0  0  0
  9 10  1  0  0  0  0
  9 11  1  0  0  0  0
  9 12  1  0  0  0  0
  8 13  4  0  0  0  0
 13 14  4  0  0  0  0
  5 14  4  0  0  0  0
  3 15  4  0  0  0  0
 15 16  4  0  0  0  0
 16 17  4  0  0  0  0
  2 17  4  0  0  0  0
 17 18  1  0  0  0  0
 18 19  2  0  0  0  0
 18 20  1  0  0  0  0
 20 21  1  0  0  0  0
 21 22  1  0  0  0  0
 21 23  1  0  0  0  0
 23 24  4  0  0  0  0
 24 25  4  0  0  0  0
 25 26  4  0  0  0  0
 26 27  4  0  0  0  0
 23 27  4  0  0  0  0
M  STY  2   1 DAT   2 DAT
M  SAL   1  1  16
M  SDT   1 MRV_IMPLICIT_H                                        
M  SDD   1     0.0000    0.0000    DR    ALL  0       0  
M  SED   1 IMPL_H1
M  SAL   2  1  26
M  SDT   2 MRV_IMPLICIT_H                                        
M  SDD   2     0.0000    0.0000    DR    ALL  0       0  
M  SED   2 IMPL_H1
M  END
>  <CdId>
789

>  <Mol Weight>
377.371

>  <Formula>
C18H18F3N5O

>  <Molecule ChEMBL ID>
CHEMBL4850116

>  <Molecule Max Phase>
None

>  <Molecular Weight>
377.37

>  <#RO5 Violations>
0

>  <AlogP>
3.54

>  <Compound Key>
33; DSM629

>  <Standard Type>
IC50

>  <Standard Relation>
'='

>  <Standard Value>
18300.0

>  <Standard Units>
nM

$$$$

  Mrv2114 03112311372D          

 35 38  0  0  1  0            999 V2000
   -0.0303   -3.2241    0.0000 C   0  0  0  0  0  0  0  0  0  0  0  0
   -0.7448   -3.6366    0.0000 C   0  0  2  0  0  0  0  0  0  0  0  0
   -1.4593   -3.2241    0.0000 C   0  0  0  0  0  0  0  0  0  0  0  0
   -2.1738   -3.6366    0.0000 C   0  0  0  0  0  0  0  0  0  0  0  0
   -2.8882   -3.2241    0.0000 C   0  0  0  0  0  0  0  0  0  0  0  0
   -2.8882   -2.3991    0.0000 C   0  0  0  0  0  0  0  0  0  0  0  0
   -3.6027   -1.9866    0.0000 C   0  0  0  0  0  0  0  0  0  0  0  0
   -4.3172   -1.5741    0.0000 F   0  0  0  0  0  0  0  0  0  0  0  0
   -4.0152   -2.7010    0.0000 F   0  0  0  0  0  0  0  0  0  0  0  0
   -3.1902   -1.2721    0.0000 F   0  0  0  0  0  0  0  0  0  0  0  0
   -2.1738   -1.9866    0.0000 C   0  0  0  0  0  0  0  0  0  0  0  0
   -1.4593   -2.3991    0.0000 C   0  0  0  0  0  0  0  0  0  0  0  0
   -0.7448   -1.9866    0.0000 C   0  0  0  0  0  0  0  0  0  0  0  0
   -0.0303   -1.5741    0.0000 F   0  0  0  0  0  0  0  0  0  0  0  0
   -0.3323   -2.7010    0.0000 F   0  0  0  0  0  0  0  0  0  0  0  0
   -1.1573   -1.2721    0.0000 F   0  0  0  0  0  0  0  0  0  0  0  0
   -0.7448   -4.4616    0.0000 N   0  0  0  0  0  0  0  0  0  0  0  0
   -0.0774   -4.9465    0.0000 C   0  0  0  0  0  0  0  0  0  0  0  0
   -0.3323   -5.7311    0.0000 C   0  0  0  0  0  0  0  0  0  0  0  0
    0.1526   -6.3986    0.0000 N   0  0  0  0  0  0  0  0  0  0  0  0
    0.9731   -6.3123    0.0000 C   0  0  0  0  0  0  0  0  0  0  0  0
    1.3086   -5.5586    0.0000 O   0  0  0  0  0  0  0  0  0  0  0  0
    1.4580   -6.9798    0.0000 C   0  0  0  0  0  0  0  0  0  0  0  0
    2.2830   -6.9798    0.0000 C   0  0  0  0  0  0  0  0  0  0  0  0
    2.5379   -7.7644    0.0000 C   0  0  0  0  0  0  0  0  0  0  0  0
    3.3226   -8.0193    0.0000 C   0  0  0  0  0  0  0  0  0  0  0  0
    3.9357   -7.4673    0.0000 C   0  0  0  0  0  0  0  0  0  0  0  0
    4.7203   -7.7222    0.0000 C   0  0  0  0  0  0  0  0  0  0  0  0
    4.8918   -8.5292    0.0000 C   0  0  0  0  0  0  0  0  0  0  0  0
    4.2787   -9.0812    0.0000 C   0  0  0  0  0  0  0  0  0  0  0  0
    3.4941   -8.8263    0.0000 N   0  0  0  0  0  0  0  0  0  0  0  0
    1.8705   -8.2493    0.0000 N   0  0  0  0  0  0  0  0  0  0  0  0
    1.2031   -7.7644    0.0000 O   0  0  0  0  0  0  0  0  0  0  0  0
   -1.1573   -5.7311    0.0000 C   0  0  0  0  0  0  0  0  0  0  0  0
   -1.4123   -4.9465    0.0000 N   0  0  0  0  0  0  0  0  0  0  0  0
  2  1  1  1  0  0  0
  2  3  1  0  0  0  0
  3  4  4  0  0  0  0
  4  5  4  0  0  0  0
  5  6  4  0  0  0  0
  6  7  1  0  0  0  0
  7  8  1  0  0  0  0
  7  9  1  0  0  0  0
  7 10  1  0  0  0  0
  6 11  4  0  0  0  0
 11 12  4  0  0  0  0
  3 12  4  0  0  0  0
 12 13  1  0  0  0  0
 13 14  1  0  0  0  0
 13 15  1  0  0  0  0
 13 16  1  0  0  0  0
  2 17  1  0  0  0  0
 17 18  4  0  0  0  0
 18 19  4  0  0  0  0
 19 20  1  0  0  0  0
 20 21  1  0  0  0  0
 21 22  2  0  0  0  0
 21 23  1  0  0  0  0
 23 24  4  0  0  0  0
 24 25  4  0  0  0  0
 25 26  1  0  0  0  0
 26 27  4  0  0  0  0
 27 28  4  0  0  0  0
 28 29  4  0  0  0  0
 29 30  4  0  0  0  0
 30 31  4  0  0  0  0
 26 31  4  0  0  0  0
 25 32  4  0  0  0  0
 32 33  4  0  0  0  0
 23 33  4  0  0  0  0
 19 34  4  0  0  0  0
 34 35  4  0  0  0  0
 17 35  4  0  0  0  0
M  END
>  <CdId>
790

>  <Mol Weight>
495.385

>  <Formula>
C22H15F6N5O2

>  <Molecule ChEMBL ID>
CHEMBL5075406

>  <Molecule Max Phase>
None

>  <Molecular Weight>
495.38

>  <#RO5 Violations>
1

>  <AlogP>
5.83

>  <Compound Key>
Compound 76

>  <Standard Type>
IC50

>  <Standard Relation>
'='

>  <Standard Value>
1140.0

>  <Standard Units>
nM

$$$$

  Mrv2114 03112311372D          

 48 53  0  0  1  0            999 V2000
   -0.8543   -2.8347    0.0000 C   0  0  0  0  0  0  0  0  0  0  0  0
   -1.4063   -2.2216    0.0000 O   0  0  0  0  0  0  0  0  0  0  0  0
   -1.1514   -1.4370    0.0000 C   0  0  0  0  0  0  0  0  0  0  0  0
   -1.7034   -0.8239    0.0000 N   0  0  0  0  0  0  0  0  0  0  0  0
   -1.4485   -0.0392    0.0000 C   0  0  0  0  0  0  0  0  0  0  0  0
   -0.6415    0.1323    0.0000 C   0  0  0  0  0  0  0  0  0  0  0  0
   -0.3866    0.9169    0.0000 C   0  0  0  0  0  0  0  0  0  0  0  0
    0.4204    1.0884    0.0000 C   0  0  0  0  0  0  0  0  0  0  0  0
    0.6754    1.8731    0.0000 C   0  0  0  0  0  0  0  0  0  0  0  0
    0.1233    2.4861    0.0000 C   0  0  0  0  0  0  0  0  0  0  0  0
    0.3783    3.2708    0.0000 C   0  0  0  0  0  0  0  0  0  0  0  0
    1.1852    3.4423    0.0000 O   0  0  0  0  0  0  0  0  0  0  0  0
   -0.1738    3.8839    0.0000 O   0  0  0  0  0  0  0  0  0  0  0  0
   -0.6836    2.3146    0.0000 C   0  0  0  0  0  0  0  0  0  0  0  0
   -0.9386    1.5300    0.0000 C   0  0  0  0  0  0  0  0  0  0  0  0
   -1.7456    1.3585    0.0000 C   0  0  0  0  0  0  0  0  0  0  0  0
   -0.0895   -0.4808    0.0000 C   0  0  0  0  0  0  0  0  0  0  0  0
   -0.3444   -1.2654    0.0000 C   0  0  0  0  0  0  0  0  0  0  0  0
    0.2076   -1.8785    0.0000 C   0  0  0  0  0  0  0  0  0  0  0  0
   -0.0473   -2.6631    0.0000 C   0  0  0  0  0  0  0  0  0  0  0  0
    0.5047   -3.2762    0.0000 C   0  0  0  0  0  0  0  0  0  0  0  0
    1.3117   -3.1047    0.0000 C   0  0  0  0  0  0  0  0  0  0  0  0
    1.8637   -3.7178    0.0000 C   0  0  0  0  0  0  0  0  0  0  0  0
    2.4158   -4.3309    0.0000 F   0  0  0  0  0  0  0  0  0  0  0  0
    1.2506   -4.2698    0.0000 F   0  0  0  0  0  0  0  0  0  0  0  0
    2.4768   -3.1658    0.0000 F   0  0  0  0  0  0  0  0  0  0  0  0
    1.5666   -2.3201    0.0000 C   0  0  0  0  0  0  0  0  0  0  0  0
    1.0146   -1.7070    0.0000 C   0  0  0  0  0  0  0  0  0  0  0  0
    1.2695   -0.9224    0.0000 C   0  0  2  0  0  0  0  0  0  0  0  0
    0.7846   -0.2549    0.0000 C   0  0  0  0  0  0  0  0  0  0  0  0
    1.2695    0.4125    0.0000 C   0  0  0  0  0  0  0  0  0  0  0  0
    2.0542    0.1576    0.0000 C   0  0  1  0  0  0  0  0  0  0  0  0
    2.8388    0.4125    0.0000 C   0  0  1  0  0  0  0  0  0  0  0  0
    3.0937    1.1971    0.0000 C   0  0  0  0  0  0  0  0  0  0  0  0
    2.5417    1.8102    0.0000 C   0  0  0  0  0  0  0  0  0  0  0  0
    2.7966    2.5948    0.0000 C   0  0  0  0  0  0  0  0  0  0  0  0
    2.2446    3.2079    0.0000 F   0  0  0  0  0  0  0  0  0  0  0  0
    3.6036    2.7664    0.0000 C   0  0  0  0  0  0  0  0  0  0  0  0
    4.1556    2.1533    0.0000 C   0  0  0  0  0  0  0  0  0  0  0  0
    4.9626    2.3248    0.0000 C   0  0  0  0  0  0  0  0  0  0  0  0
    5.7696    2.4963    0.0000 F   0  0  0  0  0  0  0  0  0  0  0  0
    5.1341    1.5178    0.0000 F   0  0  0  0  0  0  0  0  0  0  0  0
    4.7911    3.1318    0.0000 F   0  0  0  0  0  0  0  0  0  0  0  0
    3.9007    1.3686    0.0000 C   0  0  0  0  0  0  0  0  0  0  0  0
    3.3237   -0.2549    0.0000 O   0  0  0  0  0  0  0  0  0  0  0  0
    2.8388   -0.9224    0.0000 C   0  0  0  0  0  0  0  0  0  0  0  0
    3.0937   -1.7070    0.0000 O   0  0  0  0  0  0  0  0  0  0  0  0
    2.0542   -0.6674    0.0000 N   0  0  0  0  0  0  0  0  0  0  0  0
  1  2  1  0  0  0  0
  2  3  1  0  0  0  0
  3  4  4  0  0  0  0
  4  5  4  0  0  0  0
  5  6  4  0  0  0  0
  6  7  1  0  0  0  0
  7  8  4  0  0  0  0
  8  9  4  0  0  0  0
  9 10  4  0  0  0  0
 10 11  1  0  0  0  0
 11 12  2  0  0  0  0
 11 13  1  0  0  0  0
 10 14  4  0  0  0  0
 14 15  4  0  0  0  0
  7 15  4  0  0  0  0
 15 16  1  0  0  0  0
  6 17  4  0  0  0  0
 17 18  4  0  0  0  0
  3 18  4  0  0  0  0
 18 19  1  0  0  0  0
 19 20  4  0  0  0  0
 20 21  4  0  0  0  0
 21 22  4  0  0  0  0
 22 23  1  0  0  0  0
 23 24  1  0  0  0  0
 23 25  1  0  0  0  0
 23 26  1  0  0  0  0
 22 27  4  0  0  0  0
 27 28  4  0  0  0  0
 19 28  4  0  0  0  0
 29 28  1  6  0  0  0
 29 30  1  0  0  0  0
 30 31  1  0  0  0  0
 32 31  1  0  0  0  0
 32 33  1  0  0  0  0
 33 34  1  1  0  0  0
 34 35  4  0  0  0  0
 35 36  4  0  0  0  0
 36 37  1  0  0  0  0
 36 38  4  0  0  0  0
 38 39  4  0  0  0  0
 39 40  1  0  0  0  0
 40 41  1  0  0  0  0
 40 42  1  0  0  0  0
 40 43  1  0  0  0  0
 39 44  4  0  0  0  0
 34 44  4  0  0  0  0
 33 45  1  0  0  0  0
 45 46  1  0  0  0  0
 46 47  2  0  0  0  0
 46 48  1  0  0  0  0
 29 48  1  0  0  0  0
 32 48  1  1  0  0  0
M  END
>  <CdId>
791

>  <Mol Weight>
674.572

>  <Formula>
C34H25F7N2O5

>  <Molecule ChEMBL ID>
CHEMBL3657527

>  <Molecule Max Phase>
None

>  <Molecular Weight>
674.57

>  <#RO5 Violations>
2

>  <AlogP>
9

>  <Compound Key>
104

>  <Standard Type>
IC50

>  <Standard Relation>
'='

>  <Standard Value>
3000.0

>  <Standard Units>
nM

$$$$

  Mrv2114 03112311372D          

 35 38  0  0  1  0            999 V2000
   -0.0303   -3.2241    0.0000 C   0  0  0  0  0  0  0  0  0  0  0  0
   -0.7448   -3.6366    0.0000 C   0  0  2  0  0  0  0  0  0  0  0  0
   -1.4593   -3.2241    0.0000 C   0  0  0  0  0  0  0  0  0  0  0  0
   -2.1738   -3.6366    0.0000 C   0  0  0  0  0  0  0  0  0  0  0  0
   -2.8882   -3.2241    0.0000 C   0  0  0  0  0  0  0  0  0  0  0  0
   -2.8882   -2.3991    0.0000 C   0  0  0  0  0  0  0  0  0  0  0  0
   -3.6027   -1.9866    0.0000 C   0  0  0  0  0  0  0  0  0  0  0  0
   -4.3172   -1.5741    0.0000 F   0  0  0  0  0  0  0  0  0  0  0  0
   -4.0152   -2.7010    0.0000 F   0  0  0  0  0  0  0  0  0  0  0  0
   -3.1902   -1.2721    0.0000 F   0  0  0  0  0  0  0  0  0  0  0  0
   -2.1738   -1.9866    0.0000 C   0  0  0  0  0  0  0  0  0  0  0  0
   -1.4593   -2.3991    0.0000 C   0  0  0  0  0  0  0  0  0  0  0  0
   -0.7448   -1.9866    0.0000 C   0  0  0  0  0  0  0  0  0  0  0  0
   -0.0303   -1.5741    0.0000 F   0  0  0  0  0  0  0  0  0  0  0  0
   -0.3323   -2.7010    0.0000 F   0  0  0  0  0  0  0  0  0  0  0  0
   -1.1573   -1.2721    0.0000 F   0  0  0  0  0  0  0  0  0  0  0  0
   -0.7448   -4.4616    0.0000 N   0  0  0  0  0  0  0  0  0  0  0  0
   -0.0774   -4.9465    0.0000 C   0  0  0  0  0  0  0  0  0  0  0  0
   -0.3323   -5.7311    0.0000 C   0  0  0  0  0  0  0  0  0  0  0  0
    0.1526   -6.3986    0.0000 N   0  0  0  0  0  0  0  0  0  0  0  0
    0.9731   -6.3123    0.0000 C   0  0  0  0  0  0  0  0  0  0  0  0
    1.3086   -5.5586    0.0000 O   0  0  0  0  0  0  0  0  0  0  0  0
    1.4580   -6.9798    0.0000 C   0  0  0  0  0  0  0  0  0  0  0  0
    2.2830   -6.9798    0.0000 C   0  0  0  0  0  0  0  0  0  0  0  0
    2.5379   -7.7644    0.0000 C   0  0  0  0  0  0  0  0  0  0  0  0
    3.3226   -8.0193    0.0000 C   0  0  0  0  0  0  0  0  0  0  0  0
    3.9357   -7.4673    0.0000 C   0  0  0  0  0  0  0  0  0  0  0  0
    4.7203   -7.7222    0.0000 N   0  0  0  0  0  0  0  0  0  0  0  0
    4.8918   -8.5292    0.0000 C   0  0  0  0  0  0  0  0  0  0  0  0
    4.2787   -9.0812    0.0000 C   0  0  0  0  0  0  0  0  0  0  0  0
    3.4941   -8.8263    0.0000 N   0  0  0  0  0  0  0  0  0  0  0  0
    1.8705   -8.2493    0.0000 O   0  0  0  0  0  0  0  0  0  0  0  0
    1.2031   -7.7644    0.0000 N   0  0  0  0  0  0  0  0  0  0  0  0
   -1.1573   -5.7311    0.0000 C   0  0  0  0  0  0  0  0  0  0  0  0
   -1.4123   -4.9465    0.0000 N   0  0  0  0  0  0  0  0  0  0  0  0
  2  1  1  1  0  0  0
  2  3  1  0  0  0  0
  3  4  4  0  0  0  0
  4  5  4  0  0  0  0
  5  6  4  0  0  0  0
  6  7  1  0  0  0  0
  7  8  1  0  0  0  0
  7  9  1  0  0  0  0
  7 10  1  0  0  0  0
  6 11  4  0  0  0  0
 11 12  4  0  0  0  0
  3 12  4  0  0  0  0
 12 13  1  0  0  0  0
 13 14  1  0  0  0  0
 13 15  1  0  0  0  0
 13 16  1  0  0  0  0
  2 17  1  0  0  0  0
 17 18  4  0  0  0  0
 18 19  4  0  0  0  0
 19 20  1  0  0  0  0
 20 21  1  0  0  0  0
 21 22  2  0  0  0  0
 21 23  1  0  0  0  0
 23 24  4  0  0  0  0
 24 25  4  0  0  0  0
 25 26  1  0  0  0  0
 26 27  4  0  0  0  0
 27 28  4  0  0  0  0
 28 29  4  0  0  0  0
 29 30  4  0  0  0  0
 30 31  4  0  0  0  0
 26 31  4  0  0  0  0
 25 32  4  0  0  0  0
 32 33  4  0  0  0  0
 23 33  4  0  0  0  0
 19 34  4  0  0  0  0
 34 35  4  0  0  0  0
 17 35  4  0  0  0  0
M  END
>  <CdId>
792

>  <Mol Weight>
496.373

>  <Formula>
C21H14F6N6O2

>  <Molecule ChEMBL ID>
CHEMBL5092425

>  <Molecule Max Phase>
None

>  <Molecular Weight>
496.37

>  <#RO5 Violations>
1

>  <AlogP>
5.23

>  <Compound Key>
Compound 131

>  <Standard Type>
IC50

>  <Standard Relation>
'='

>  <Standard Value>
43270.0

>  <Standard Units>
nM

$$$$

  Mrv2114 03112311372D          

 34 37  0  0  0  0            999 V2000
   -2.1738   -3.6366    0.0000 O   0  0  0  0  0  0  0  0  0  0  0  0
   -1.4593   -3.2241    0.0000 C   0  0  0  0  0  0  0  0  0  0  0  0
   -0.7448   -3.6366    0.0000 N   0  0  0  0  0  0  0  0  0  0  0  0
   -0.7448   -4.4616    0.0000 C   0  0  0  0  0  0  0  0  0  0  0  0
   -0.0774   -4.9465    0.0000 C   0  0  0  0  0  0  0  0  0  0  0  0
   -0.3323   -5.7311    0.0000 N   0  0  0  0  0  0  0  0  0  0  0  0
   -1.1573   -5.7311    0.0000 N   0  0  0  0  0  0  0  0  0  0  0  0
   -1.6422   -6.3986    0.0000 C   0  0  0  0  0  0  0  0  0  0  0  0
   -1.3067   -7.1522    0.0000 C   0  0  0  0  0  0  0  0  0  0  0  0
   -0.4862   -7.2385    0.0000 C   0  0  0  0  0  0  0  0  0  0  0  0
   -0.1506   -7.9921    0.0000 C   0  0  0  0  0  0  0  0  0  0  0  0
   -0.6356   -8.6596    0.0000 C   0  0  0  0  0  0  0  0  0  0  0  0
   -0.3000   -9.4133    0.0000 C   0  0  0  0  0  0  0  0  0  0  0  0
    0.0355  -10.1669    0.0000 F   0  0  0  0  0  0  0  0  0  0  0  0
    0.4537   -9.0777    0.0000 F   0  0  0  0  0  0  0  0  0  0  0  0
   -1.0537   -9.7488    0.0000 F   0  0  0  0  0  0  0  0  0  0  0  0
   -1.4560   -8.5733    0.0000 C   0  0  0  0  0  0  0  0  0  0  0  0
   -1.7916   -7.8197    0.0000 C   0  0  0  0  0  0  0  0  0  0  0  0
   -2.6121   -7.7334    0.0000 C   0  0  0  0  0  0  0  0  0  0  0  0
   -3.4326   -7.6472    0.0000 F   0  0  0  0  0  0  0  0  0  0  0  0
   -2.5258   -6.9129    0.0000 F   0  0  0  0  0  0  0  0  0  0  0  0
   -2.6983   -8.5539    0.0000 F   0  0  0  0  0  0  0  0  0  0  0  0
   -1.4123   -4.9465    0.0000 C   0  0  0  0  0  0  0  0  0  0  0  0
   -1.4593   -2.3991    0.0000 C   0  0  0  0  0  0  0  0  0  0  0  0
   -2.1267   -1.9141    0.0000 C   0  0  0  0  0  0  0  0  0  0  0  0
   -1.8718   -1.1295    0.0000 C   0  0  0  0  0  0  0  0  0  0  0  0
   -2.3567   -0.4621    0.0000 C   0  0  0  0  0  0  0  0  0  0  0  0
   -3.1772   -0.5483    0.0000 N   0  0  0  0  0  0  0  0  0  0  0  0
   -3.6621    0.1191    0.0000 C   0  0  0  0  0  0  0  0  0  0  0  0
   -3.3266    0.8728    0.0000 C   0  0  0  0  0  0  0  0  0  0  0  0
   -2.5061    0.9590    0.0000 C   0  0  0  0  0  0  0  0  0  0  0  0
   -2.0212    0.2916    0.0000 N   0  0  0  0  0  0  0  0  0  0  0  0
   -1.0468   -1.1295    0.0000 O   0  0  0  0  0  0  0  0  0  0  0  0
   -0.7918   -1.9141    0.0000 N   0  0  0  0  0  0  0  0  0  0  0  0
  1  2  2  0  0  0  0
  2  3  1  0  0  0  0
  3  4  1  0  0  0  0
  4  5  4  0  0  0  0
  5  6  4  0  0  0  0
  6  7  4  0  0  0  0
  7  8  1  0  0  0  0
  8  9  1  0  0  0  0
  9 10  4  0  0  0  0
 10 11  4  0  0  0  0
 11 12  4  0  0  0  0
 12 13  1  0  0  0  0
 13 14  1  0  0  0  0
 13 15  1  0  0  0  0
 13 16  1  0  0  0  0
 12 17  4  0  0  0  0
 17 18  4  0  0  0  0
  9 18  4  0  0  0  0
 18 19  1  0  0  0  0
 19 20  1  0  0  0  0
 19 21  1  0  0  0  0
 19 22  1  0  0  0  0
  7 23  4  0  0  0  0
  4 23  4  0  0  0  0
  2 24  1  0  0  0  0
 24 25  4  0  0  0  0
 25 26  4  0  0  0  0
 26 27  1  0  0  0  0
 27 28  4  0  0  0  0
 28 29  4  0  0  0  0
 29 30  4  0  0  0  0
 30 31  4  0  0  0  0
 31 32  4  0  0  0  0
 27 32  4  0  0  0  0
 26 33  4  0  0  0  0
 33 34  4  0  0  0  0
 24 34  4  0  0  0  0
M  END
>  <CdId>
793

>  <Mol Weight>
482.346

>  <Formula>
C20H12F6N6O2

>  <Molecule ChEMBL ID>
CHEMBL5077812

>  <Molecule Max Phase>
None

>  <Molecular Weight>
482.34

>  <#RO5 Violations>
0

>  <AlogP>
4.67

>  <Compound Key>
Compound 129

>  <Standard Type>
IC50

>  <Standard Relation>
'>'

>  <Standard Value>
50000.0

>  <Standard Units>
nM

$$$$

  Mrv2114 03112311372D          

 34 37  0  0  0  0            999 V2000
   -2.1738   -3.6366    0.0000 O   0  0  0  0  0  0  0  0  0  0  0  0
   -1.4593   -3.2241    0.0000 C   0  0  0  0  0  0  0  0  0  0  0  0
   -0.7448   -3.6366    0.0000 N   0  0  0  0  0  0  0  0  0  0  0  0
   -0.7448   -4.4616    0.0000 C   0  0  0  0  0  0  0  0  0  0  0  0
   -0.0774   -4.9465    0.0000 C   0  0  0  0  0  0  0  0  0  0  0  0
   -0.3323   -5.7311    0.0000 N   0  0  0  0  0  0  0  0  0  0  0  0
   -1.1573   -5.7311    0.0000 N   0  0  0  0  0  0  0  0  0  0  0  0
   -1.6422   -6.3986    0.0000 C   0  0  0  0  0  0  0  0  0  0  0  0
   -1.3067   -7.1522    0.0000 C   0  0  0  0  0  0  0  0  0  0  0  0
   -0.4862   -7.2385    0.0000 C   0  0  0  0  0  0  0  0  0  0  0  0
   -0.1506   -7.9921    0.0000 C   0  0  0  0  0  0  0  0  0  0  0  0
   -0.6356   -8.6596    0.0000 C   0  0  0  0  0  0  0  0  0  0  0  0
   -0.3000   -9.4133    0.0000 C   0  0  0  0  0  0  0  0  0  0  0  0
    0.0355  -10.1669    0.0000 F   0  0  0  0  0  0  0  0  0  0  0  0
    0.4537   -9.0777    0.0000 F   0  0  0  0  0  0  0  0  0  0  0  0
   -1.0537   -9.7488    0.0000 F   0  0  0  0  0  0  0  0  0  0  0  0
   -1.4560   -8.5733    0.0000 C   0  0  0  0  0  0  0  0  0  0  0  0
   -1.7916   -7.8197    0.0000 C   0  0  0  0  0  0  0  0  0  0  0  0
   -2.6121   -7.7334    0.0000 C   0  0  0  0  0  0  0  0  0  0  0  0
   -3.4326   -7.6472    0.0000 F   0  0  0  0  0  0  0  0  0  0  0  0
   -2.5258   -6.9129    0.0000 F   0  0  0  0  0  0  0  0  0  0  0  0
   -2.6983   -8.5539    0.0000 F   0  0  0  0  0  0  0  0  0  0  0  0
   -1.4123   -4.9465    0.0000 C   0  0  0  0  0  0  0  0  0  0  0  0
   -1.4593   -2.3991    0.0000 C   0  0  0  0  0  0  0  0  0  0  0  0
   -2.1267   -1.9141    0.0000 C   0  0  0  0  0  0  0  0  0  0  0  0
   -1.8718   -1.1295    0.0000 C   0  0  0  0  0  0  0  0  0  0  0  0
   -2.3567   -0.4621    0.0000 C   0  0  0  0  0  0  0  0  0  0  0  0
   -3.1772   -0.5483    0.0000 C   0  0  0  0  0  0  0  0  0  0  0  0
   -3.6621    0.1191    0.0000 N   0  0  0  0  0  0  0  0  0  0  0  0
   -3.3266    0.8728    0.0000 C   0  0  0  0  0  0  0  0  0  0  0  0
   -2.5061    0.9590    0.0000 C   0  0  0  0  0  0  0  0  0  0  0  0
   -2.0212    0.2916    0.0000 N   0  0  0  0  0  0  0  0  0  0  0  0
   -1.0468   -1.1295    0.0000 O   0  0  0  0  0  0  0  0  0  0  0  0
   -0.7918   -1.9141    0.0000 N   0  0  0  0  0  0  0  0  0  0  0  0
  1  2  2  0  0  0  0
  2  3  1  0  0  0  0
  3  4  1  0  0  0  0
  4  5  4  0  0  0  0
  5  6  4  0  0  0  0
  6  7  4  0  0  0  0
  7  8  1  0  0  0  0
  8  9  1  0  0  0  0
  9 10  4  0  0  0  0
 10 11  4  0  0  0  0
 11 12  4  0  0  0  0
 12 13  1  0  0  0  0
 13 14  1  0  0  0  0
 13 15  1  0  0  0  0
 13 16  1  0  0  0  0
 12 17  4  0  0  0  0
 17 18  4  0  0  0  0
  9 18  4  0  0  0  0
 18 19  1  0  0  0  0
 19 20  1  0  0  0  0
 19 21  1  0  0  0  0
 19 22  1  0  0  0  0
  7 23  4  0  0  0  0
  4 23  4  0  0  0  0
  2 24  1  0  0  0  0
 24 25  4  0  0  0  0
 25 26  4  0  0  0  0
 26 27  1  0  0  0  0
 27 28  4  0  0  0  0
 28 29  4  0  0  0  0
 29 30  4  0  0  0  0
 30 31  4  0  0  0  0
 31 32  4  0  0  0  0
 27 32  4  0  0  0  0
 26 33  4  0  0  0  0
 33 34  4  0  0  0  0
 24 34  4  0  0  0  0
M  END
>  <CdId>
794

>  <Mol Weight>
482.346

>  <Formula>
C20H12F6N6O2

>  <Molecule ChEMBL ID>
CHEMBL5092621

>  <Molecule Max Phase>
None

>  <Molecular Weight>
482.34

>  <#RO5 Violations>
0

>  <AlogP>
4.67

>  <Compound Key>
Compound 114

>  <Standard Type>
IC50

>  <Standard Relation>
'>'

>  <Standard Value>
50000.0

>  <Standard Units>
nM

$$$$

  Mrv2114 03112311372D          

 35 38  0  0  1  0            999 V2000
    2.8882   -3.2241    0.0000 C   0  0  0  0  0  0  0  0  0  0  0  0
    2.1738   -3.6366    0.0000 C   0  0  2  0  0  0  0  0  0  0  0  0
    1.4593   -3.2241    0.0000 C   0  0  0  0  0  0  0  0  0  0  0  0
    0.7448   -3.6366    0.0000 C   0  0  0  0  0  0  0  0  0  0  0  0
    0.0303   -3.2241    0.0000 C   0  0  0  0  0  0  0  0  0  0  0  0
    0.0303   -2.3991    0.0000 C   0  0  0  0  0  0  0  0  0  0  0  0
   -0.6841   -1.9866    0.0000 C   0  0  0  0  0  0  0  0  0  0  0  0
   -1.3986   -1.5741    0.0000 F   0  0  0  0  0  0  0  0  0  0  0  0
   -1.0966   -2.7010    0.0000 F   0  0  0  0  0  0  0  0  0  0  0  0
   -0.2716   -1.2721    0.0000 F   0  0  0  0  0  0  0  0  0  0  0  0
    0.7448   -1.9866    0.0000 C   0  0  0  0  0  0  0  0  0  0  0  0
    1.4593   -2.3991    0.0000 C   0  0  0  0  0  0  0  0  0  0  0  0
    2.1738   -1.9866    0.0000 C   0  0  0  0  0  0  0  0  0  0  0  0
    2.8882   -1.5741    0.0000 F   0  0  0  0  0  0  0  0  0  0  0  0
    2.5863   -2.7010    0.0000 F   0  0  0  0  0  0  0  0  0  0  0  0
    1.7613   -1.2721    0.0000 F   0  0  0  0  0  0  0  0  0  0  0  0
    2.1738   -4.4616    0.0000 N   0  0  0  0  0  0  0  0  0  0  0  0
    2.8412   -4.9465    0.0000 C   0  0  0  0  0  0  0  0  0  0  0  0
    2.5863   -5.7311    0.0000 C   0  0  0  0  0  0  0  0  0  0  0  0
    3.0712   -6.3986    0.0000 N   0  0  0  0  0  0  0  0  0  0  0  0
    2.7356   -7.1522    0.0000 C   0  0  0  0  0  0  0  0  0  0  0  0
    1.9151   -7.2385    0.0000 O   0  0  0  0  0  0  0  0  0  0  0  0
    3.2205   -7.8197    0.0000 C   0  0  0  0  0  0  0  0  0  0  0  0
    4.0455   -7.8197    0.0000 N   0  0  0  0  0  0  0  0  0  0  0  0
    4.3005   -8.6043    0.0000 N   0  0  0  0  0  0  0  0  0  0  0  0
    3.6330   -9.0892    0.0000 C   0  0  0  0  0  0  0  0  0  0  0  0
    3.6330   -9.9142    0.0000 C   0  0  0  0  0  0  0  0  0  0  0  0
    4.3475  -10.3267    0.0000 C   0  0  0  0  0  0  0  0  0  0  0  0
    4.3475  -11.1517    0.0000 N   0  0  0  0  0  0  0  0  0  0  0  0
    3.6330  -11.5642    0.0000 C   0  0  0  0  0  0  0  0  0  0  0  0
    2.9186  -11.1517    0.0000 C   0  0  0  0  0  0  0  0  0  0  0  0
    2.9186  -10.3267    0.0000 N   0  0  0  0  0  0  0  0  0  0  0  0
    2.9656   -8.6043    0.0000 S   0  0  0  0  0  0  0  0  0  0  0  0
    1.7613   -5.7311    0.0000 C   0  0  0  0  0  0  0  0  0  0  0  0
    1.5063   -4.9465    0.0000 N   0  0  0  0  0  0  0  0  0  0  0  0
  2  1  1  1  0  0  0
  2  3  1  0  0  0  0
  3  4  4  0  0  0  0
  4  5  4  0  0  0  0
  5  6  4  0  0  0  0
  6  7  1  0  0  0  0
  7  8  1  0  0  0  0
  7  9  1  0  0  0  0
  7 10  1  0  0  0  0
  6 11  4  0  0  0  0
 11 12  4  0  0  0  0
  3 12  4  0  0  0  0
 12 13  1  0  0  0  0
 13 14  1  0  0  0  0
 13 15  1  0  0  0  0
 13 16  1  0  0  0  0
  2 17  1  0  0  0  0
 17 18  4  0  0  0  0
 18 19  4  0  0  0  0
 19 20  1  0  0  0  0
 20 21  1  0  0  0  0
 21 22  2  0  0  0  0
 21 23  1  0  0  0  0
 23 24  4  0  0  0  0
 24 25  4  0  0  0  0
 25 26  4  0  0  0  0
 26 27  1  0  0  0  0
 27 28  4  0  0  0  0
 28 29  4  0  0  0  0
 29 30  4  0  0  0  0
 30 31  4  0  0  0  0
 31 32  4  0  0  0  0
 27 32  4  0  0  0  0
 26 33  4  0  0  0  0
 23 33  4  0  0  0  0
 19 34  4  0  0  0  0
 34 35  4  0  0  0  0
 17 35  4  0  0  0  0
M  END
>  <CdId>
795

>  <Mol Weight>
513.42

>  <Formula>
C20H13F6N7OS

>  <Molecule ChEMBL ID>
CHEMBL5094932

>  <Molecule Max Phase>
None

>  <Molecular Weight>
513.43

>  <#RO5 Violations>
2

>  <AlogP>
5.09

>  <Compound Key>
Compound 152

>  <Standard Type>
IC50

>  <Standard Relation>
'>'

>  <Standard Value>
50000.0

>  <Standard Units>
nM

$$$$
